<?xml version="1.0" encoding="UTF-8"?>

<!-- generated on 2022-10-25 22:30:36 by Eclipse SUMO duarouter Version 1.12.0
<configuration xmlns:xsi="http://www.w3.org/2001/XMLSchema-instance" xsi:noNamespaceSchemaLocation="http://sumo.dlr.de/xsd/duarouterConfiguration.xsd">

    <input>
        <net-file value="rongwu1.net.xml"/>
        <route-files value="random_routes_aggressive.xml"/>
    </input>

    <output>
        <output-file value="rongwu_route_aggressive.rou.xml"/>
        <alternatives-output value="rongwu_route_aggressive.rou.alt.xml"/>
    </output>

    <processing>
        <randomize-flows value="false"/>
    </processing>

    <report>
        <xml-validation value="never"/>
        <xml-validation.routes value="never"/>
    </report>

</configuration>
-->

<routes xmlns:xsi="http://www.w3.org/2001/XMLSchema-instance" xsi:noNamespaceSchemaLocation="http://sumo.dlr.de/xsd/routes_file.xsd">
    <vType id="type1" minGap="2.20" lcStrategic="1.25" lcCooperative="0.9" lcAssertive="1.25" accel="2.9" decel="4.8" emergencyDecel="9.0" sigma="0.5" tau="1.0"/>
    <vehicle id="m1.0" type="type1" depart="0.00" departLane="best" departPos="base" departSpeed="max">
        <route edges="lane0 lane1 lane2 lane3 lane4 lane5 lane6 lane7 lane8 lane9_1 lane9_2 lane10_1 lane10_2 lane10_3 lane11 lane12"/>
    </vehicle>
    <vehicle id="off1.0" type="type1" depart="0.00" departLane="best" departPos="base" departSpeed="max">
        <route edges="lane0 lane1 lane2 lane3 lane4 lane5 lane6 lane7 lane8 lane9_1 lane13 lane14"/>
    </vehicle>
    <vehicle id="on1.0" type="type1" depart="0.00" departLane="random" departPos="base" departSpeed="max">
        <route edges="lane16 lane15_1 lane15_2 lane10_2 lane10_3 lane11 lane12"/>
    </vehicle>
    <vehicle id="m1.1" type="type1" depart="0.55" departLane="best" departPos="base" departSpeed="max">
        <route edges="lane0 lane1 lane2 lane3 lane4 lane5 lane6 lane7 lane8 lane9_1 lane9_2 lane10_1 lane10_2 lane10_3 lane11 lane12"/>
    </vehicle>
    <vehicle id="m1.2" type="type1" depart="1.11" departLane="best" departPos="base" departSpeed="max">
        <route edges="lane0 lane1 lane2 lane3 lane4 lane5 lane6 lane7 lane8 lane9_1 lane9_2 lane10_1 lane10_2 lane10_3 lane11 lane12"/>
    </vehicle>
    <vehicle id="m1.3" type="type1" depart="1.66" departLane="best" departPos="base" departSpeed="max">
        <route edges="lane0 lane1 lane2 lane3 lane4 lane5 lane6 lane7 lane8 lane9_1 lane9_2 lane10_1 lane10_2 lane10_3 lane11 lane12"/>
    </vehicle>
    <vehicle id="m1.4" type="type1" depart="2.21" departLane="best" departPos="base" departSpeed="max">
        <route edges="lane0 lane1 lane2 lane3 lane4 lane5 lane6 lane7 lane8 lane9_1 lane9_2 lane10_1 lane10_2 lane10_3 lane11 lane12"/>
    </vehicle>
    <vehicle id="m1.5" type="type1" depart="2.77" departLane="best" departPos="base" departSpeed="max">
        <route edges="lane0 lane1 lane2 lane3 lane4 lane5 lane6 lane7 lane8 lane9_1 lane9_2 lane10_1 lane10_2 lane10_3 lane11 lane12"/>
    </vehicle>
    <vehicle id="on1.1" type="type1" depart="2.81" departLane="random" departPos="base" departSpeed="max">
        <route edges="lane16 lane15_1 lane15_2 lane10_2 lane10_3 lane11 lane12"/>
    </vehicle>
    <vehicle id="m1.6" type="type1" depart="3.32" departLane="best" departPos="base" departSpeed="max">
        <route edges="lane0 lane1 lane2 lane3 lane4 lane5 lane6 lane7 lane8 lane9_1 lane9_2 lane10_1 lane10_2 lane10_3 lane11 lane12"/>
    </vehicle>
    <vehicle id="m1.7" type="type1" depart="3.87" departLane="best" departPos="base" departSpeed="max">
        <route edges="lane0 lane1 lane2 lane3 lane4 lane5 lane6 lane7 lane8 lane9_1 lane9_2 lane10_1 lane10_2 lane10_3 lane11 lane12"/>
    </vehicle>
    <vehicle id="m1.8" type="type1" depart="4.42" departLane="best" departPos="base" departSpeed="max">
        <route edges="lane0 lane1 lane2 lane3 lane4 lane5 lane6 lane7 lane8 lane9_1 lane9_2 lane10_1 lane10_2 lane10_3 lane11 lane12"/>
    </vehicle>
    <vehicle id="m1.9" type="type1" depart="4.98" departLane="best" departPos="base" departSpeed="max">
        <route edges="lane0 lane1 lane2 lane3 lane4 lane5 lane6 lane7 lane8 lane9_1 lane9_2 lane10_1 lane10_2 lane10_3 lane11 lane12"/>
    </vehicle>
    <vehicle id="m1.10" type="type1" depart="5.53" departLane="best" departPos="base" departSpeed="max">
        <route edges="lane0 lane1 lane2 lane3 lane4 lane5 lane6 lane7 lane8 lane9_1 lane9_2 lane10_1 lane10_2 lane10_3 lane11 lane12"/>
    </vehicle>
    <vehicle id="on1.2" type="type1" depart="5.63" departLane="random" departPos="base" departSpeed="max">
        <route edges="lane16 lane15_1 lane15_2 lane10_2 lane10_3 lane11 lane12"/>
    </vehicle>
    <vehicle id="m1.11" type="type1" depart="6.08" departLane="best" departPos="base" departSpeed="max">
        <route edges="lane0 lane1 lane2 lane3 lane4 lane5 lane6 lane7 lane8 lane9_1 lane9_2 lane10_1 lane10_2 lane10_3 lane11 lane12"/>
    </vehicle>
    <vehicle id="m1.12" type="type1" depart="6.64" departLane="best" departPos="base" departSpeed="max">
        <route edges="lane0 lane1 lane2 lane3 lane4 lane5 lane6 lane7 lane8 lane9_1 lane9_2 lane10_1 lane10_2 lane10_3 lane11 lane12"/>
    </vehicle>
    <vehicle id="m1.13" type="type1" depart="7.19" departLane="best" departPos="base" departSpeed="max">
        <route edges="lane0 lane1 lane2 lane3 lane4 lane5 lane6 lane7 lane8 lane9_1 lane9_2 lane10_1 lane10_2 lane10_3 lane11 lane12"/>
    </vehicle>
    <vehicle id="m1.14" type="type1" depart="7.74" departLane="best" departPos="base" departSpeed="max">
        <route edges="lane0 lane1 lane2 lane3 lane4 lane5 lane6 lane7 lane8 lane9_1 lane9_2 lane10_1 lane10_2 lane10_3 lane11 lane12"/>
    </vehicle>
    <vehicle id="m1.15" type="type1" depart="8.30" departLane="best" departPos="base" departSpeed="max">
        <route edges="lane0 lane1 lane2 lane3 lane4 lane5 lane6 lane7 lane8 lane9_1 lane9_2 lane10_1 lane10_2 lane10_3 lane11 lane12"/>
    </vehicle>
    <vehicle id="on1.3" type="type1" depart="8.44" departLane="random" departPos="base" departSpeed="max">
        <route edges="lane16 lane15_1 lane15_2 lane10_2 lane10_3 lane11 lane12"/>
    </vehicle>
    <vehicle id="m1.16" type="type1" depart="8.85" departLane="best" departPos="base" departSpeed="max">
        <route edges="lane0 lane1 lane2 lane3 lane4 lane5 lane6 lane7 lane8 lane9_1 lane9_2 lane10_1 lane10_2 lane10_3 lane11 lane12"/>
    </vehicle>
    <vehicle id="m1.17" type="type1" depart="9.40" departLane="best" departPos="base" departSpeed="max">
        <route edges="lane0 lane1 lane2 lane3 lane4 lane5 lane6 lane7 lane8 lane9_1 lane9_2 lane10_1 lane10_2 lane10_3 lane11 lane12"/>
    </vehicle>
    <vehicle id="m1.18" type="type1" depart="9.95" departLane="best" departPos="base" departSpeed="max">
        <route edges="lane0 lane1 lane2 lane3 lane4 lane5 lane6 lane7 lane8 lane9_1 lane9_2 lane10_1 lane10_2 lane10_3 lane11 lane12"/>
    </vehicle>
    <vehicle id="m1.19" type="type1" depart="10.51" departLane="best" departPos="base" departSpeed="max">
        <route edges="lane0 lane1 lane2 lane3 lane4 lane5 lane6 lane7 lane8 lane9_1 lane9_2 lane10_1 lane10_2 lane10_3 lane11 lane12"/>
    </vehicle>
    <vehicle id="m1.20" type="type1" depart="11.06" departLane="best" departPos="base" departSpeed="max">
        <route edges="lane0 lane1 lane2 lane3 lane4 lane5 lane6 lane7 lane8 lane9_1 lane9_2 lane10_1 lane10_2 lane10_3 lane11 lane12"/>
    </vehicle>
    <vehicle id="on1.4" type="type1" depart="11.25" departLane="random" departPos="base" departSpeed="max">
        <route edges="lane16 lane15_1 lane15_2 lane10_2 lane10_3 lane11 lane12"/>
    </vehicle>
    <vehicle id="m1.21" type="type1" depart="11.61" departLane="best" departPos="base" departSpeed="max">
        <route edges="lane0 lane1 lane2 lane3 lane4 lane5 lane6 lane7 lane8 lane9_1 lane9_2 lane10_1 lane10_2 lane10_3 lane11 lane12"/>
    </vehicle>
    <vehicle id="m1.22" type="type1" depart="12.17" departLane="best" departPos="base" departSpeed="max">
        <route edges="lane0 lane1 lane2 lane3 lane4 lane5 lane6 lane7 lane8 lane9_1 lane9_2 lane10_1 lane10_2 lane10_3 lane11 lane12"/>
    </vehicle>
    <vehicle id="m1.23" type="type1" depart="12.72" departLane="best" departPos="base" departSpeed="max">
        <route edges="lane0 lane1 lane2 lane3 lane4 lane5 lane6 lane7 lane8 lane9_1 lane9_2 lane10_1 lane10_2 lane10_3 lane11 lane12"/>
    </vehicle>
    <vehicle id="m1.24" type="type1" depart="13.27" departLane="best" departPos="base" departSpeed="max">
        <route edges="lane0 lane1 lane2 lane3 lane4 lane5 lane6 lane7 lane8 lane9_1 lane9_2 lane10_1 lane10_2 lane10_3 lane11 lane12"/>
    </vehicle>
    <vehicle id="m1.25" type="type1" depart="13.83" departLane="best" departPos="base" departSpeed="max">
        <route edges="lane0 lane1 lane2 lane3 lane4 lane5 lane6 lane7 lane8 lane9_1 lane9_2 lane10_1 lane10_2 lane10_3 lane11 lane12"/>
    </vehicle>
    <vehicle id="on1.5" type="type1" depart="14.07" departLane="random" departPos="base" departSpeed="max">
        <route edges="lane16 lane15_1 lane15_2 lane10_2 lane10_3 lane11 lane12"/>
    </vehicle>
    <vehicle id="m1.26" type="type1" depart="14.38" departLane="best" departPos="base" departSpeed="max">
        <route edges="lane0 lane1 lane2 lane3 lane4 lane5 lane6 lane7 lane8 lane9_1 lane9_2 lane10_1 lane10_2 lane10_3 lane11 lane12"/>
    </vehicle>
    <vehicle id="m1.27" type="type1" depart="14.93" departLane="best" departPos="base" departSpeed="max">
        <route edges="lane0 lane1 lane2 lane3 lane4 lane5 lane6 lane7 lane8 lane9_1 lane9_2 lane10_1 lane10_2 lane10_3 lane11 lane12"/>
    </vehicle>
    <vehicle id="m1.28" type="type1" depart="15.48" departLane="best" departPos="base" departSpeed="max">
        <route edges="lane0 lane1 lane2 lane3 lane4 lane5 lane6 lane7 lane8 lane9_1 lane9_2 lane10_1 lane10_2 lane10_3 lane11 lane12"/>
    </vehicle>
    <vehicle id="m1.29" type="type1" depart="16.04" departLane="best" departPos="base" departSpeed="max">
        <route edges="lane0 lane1 lane2 lane3 lane4 lane5 lane6 lane7 lane8 lane9_1 lane9_2 lane10_1 lane10_2 lane10_3 lane11 lane12"/>
    </vehicle>
    <vehicle id="m1.30" type="type1" depart="16.59" departLane="best" departPos="base" departSpeed="max">
        <route edges="lane0 lane1 lane2 lane3 lane4 lane5 lane6 lane7 lane8 lane9_1 lane9_2 lane10_1 lane10_2 lane10_3 lane11 lane12"/>
    </vehicle>
    <vehicle id="on1.6" type="type1" depart="16.88" departLane="random" departPos="base" departSpeed="max">
        <route edges="lane16 lane15_1 lane15_2 lane10_2 lane10_3 lane11 lane12"/>
    </vehicle>
    <vehicle id="m1.31" type="type1" depart="17.14" departLane="best" departPos="base" departSpeed="max">
        <route edges="lane0 lane1 lane2 lane3 lane4 lane5 lane6 lane7 lane8 lane9_1 lane9_2 lane10_1 lane10_2 lane10_3 lane11 lane12"/>
    </vehicle>
    <vehicle id="m1.32" type="type1" depart="17.70" departLane="best" departPos="base" departSpeed="max">
        <route edges="lane0 lane1 lane2 lane3 lane4 lane5 lane6 lane7 lane8 lane9_1 lane9_2 lane10_1 lane10_2 lane10_3 lane11 lane12"/>
    </vehicle>
    <vehicle id="m1.33" type="type1" depart="18.25" departLane="best" departPos="base" departSpeed="max">
        <route edges="lane0 lane1 lane2 lane3 lane4 lane5 lane6 lane7 lane8 lane9_1 lane9_2 lane10_1 lane10_2 lane10_3 lane11 lane12"/>
    </vehicle>
    <vehicle id="m1.34" type="type1" depart="18.80" departLane="best" departPos="base" departSpeed="max">
        <route edges="lane0 lane1 lane2 lane3 lane4 lane5 lane6 lane7 lane8 lane9_1 lane9_2 lane10_1 lane10_2 lane10_3 lane11 lane12"/>
    </vehicle>
    <vehicle id="m1.35" type="type1" depart="19.36" departLane="best" departPos="base" departSpeed="max">
        <route edges="lane0 lane1 lane2 lane3 lane4 lane5 lane6 lane7 lane8 lane9_1 lane9_2 lane10_1 lane10_2 lane10_3 lane11 lane12"/>
    </vehicle>
    <vehicle id="on1.7" type="type1" depart="19.69" departLane="random" departPos="base" departSpeed="max">
        <route edges="lane16 lane15_1 lane15_2 lane10_2 lane10_3 lane11 lane12"/>
    </vehicle>
    <vehicle id="m1.36" type="type1" depart="19.91" departLane="best" departPos="base" departSpeed="max">
        <route edges="lane0 lane1 lane2 lane3 lane4 lane5 lane6 lane7 lane8 lane9_1 lane9_2 lane10_1 lane10_2 lane10_3 lane11 lane12"/>
    </vehicle>
    <vehicle id="off1.1" type="type1" depart="20.00" departLane="best" departPos="base" departSpeed="max">
        <route edges="lane0 lane1 lane2 lane3 lane4 lane5 lane6 lane7 lane8 lane9_1 lane13 lane14"/>
    </vehicle>
    <vehicle id="m1.37" type="type1" depart="20.46" departLane="best" departPos="base" departSpeed="max">
        <route edges="lane0 lane1 lane2 lane3 lane4 lane5 lane6 lane7 lane8 lane9_1 lane9_2 lane10_1 lane10_2 lane10_3 lane11 lane12"/>
    </vehicle>
    <vehicle id="m1.38" type="type1" depart="21.01" departLane="best" departPos="base" departSpeed="max">
        <route edges="lane0 lane1 lane2 lane3 lane4 lane5 lane6 lane7 lane8 lane9_1 lane9_2 lane10_1 lane10_2 lane10_3 lane11 lane12"/>
    </vehicle>
    <vehicle id="m1.39" type="type1" depart="21.57" departLane="best" departPos="base" departSpeed="max">
        <route edges="lane0 lane1 lane2 lane3 lane4 lane5 lane6 lane7 lane8 lane9_1 lane9_2 lane10_1 lane10_2 lane10_3 lane11 lane12"/>
    </vehicle>
    <vehicle id="m1.40" type="type1" depart="22.12" departLane="best" departPos="base" departSpeed="max">
        <route edges="lane0 lane1 lane2 lane3 lane4 lane5 lane6 lane7 lane8 lane9_1 lane9_2 lane10_1 lane10_2 lane10_3 lane11 lane12"/>
    </vehicle>
    <vehicle id="on1.8" type="type1" depart="22.50" departLane="random" departPos="base" departSpeed="max">
        <route edges="lane16 lane15_1 lane15_2 lane10_2 lane10_3 lane11 lane12"/>
    </vehicle>
    <vehicle id="m1.41" type="type1" depart="22.67" departLane="best" departPos="base" departSpeed="max">
        <route edges="lane0 lane1 lane2 lane3 lane4 lane5 lane6 lane7 lane8 lane9_1 lane9_2 lane10_1 lane10_2 lane10_3 lane11 lane12"/>
    </vehicle>
    <vehicle id="m1.42" type="type1" depart="23.23" departLane="best" departPos="base" departSpeed="max">
        <route edges="lane0 lane1 lane2 lane3 lane4 lane5 lane6 lane7 lane8 lane9_1 lane9_2 lane10_1 lane10_2 lane10_3 lane11 lane12"/>
    </vehicle>
    <vehicle id="m1.43" type="type1" depart="23.78" departLane="best" departPos="base" departSpeed="max">
        <route edges="lane0 lane1 lane2 lane3 lane4 lane5 lane6 lane7 lane8 lane9_1 lane9_2 lane10_1 lane10_2 lane10_3 lane11 lane12"/>
    </vehicle>
    <vehicle id="m1.44" type="type1" depart="24.33" departLane="best" departPos="base" departSpeed="max">
        <route edges="lane0 lane1 lane2 lane3 lane4 lane5 lane6 lane7 lane8 lane9_1 lane9_2 lane10_1 lane10_2 lane10_3 lane11 lane12"/>
    </vehicle>
    <vehicle id="m1.45" type="type1" depart="24.89" departLane="best" departPos="base" departSpeed="max">
        <route edges="lane0 lane1 lane2 lane3 lane4 lane5 lane6 lane7 lane8 lane9_1 lane9_2 lane10_1 lane10_2 lane10_3 lane11 lane12"/>
    </vehicle>
    <vehicle id="on1.9" type="type1" depart="25.32" departLane="random" departPos="base" departSpeed="max">
        <route edges="lane16 lane15_1 lane15_2 lane10_2 lane10_3 lane11 lane12"/>
    </vehicle>
    <vehicle id="m1.46" type="type1" depart="25.44" departLane="best" departPos="base" departSpeed="max">
        <route edges="lane0 lane1 lane2 lane3 lane4 lane5 lane6 lane7 lane8 lane9_1 lane9_2 lane10_1 lane10_2 lane10_3 lane11 lane12"/>
    </vehicle>
    <vehicle id="m1.47" type="type1" depart="25.99" departLane="best" departPos="base" departSpeed="max">
        <route edges="lane0 lane1 lane2 lane3 lane4 lane5 lane6 lane7 lane8 lane9_1 lane9_2 lane10_1 lane10_2 lane10_3 lane11 lane12"/>
    </vehicle>
    <vehicle id="m1.48" type="type1" depart="26.54" departLane="best" departPos="base" departSpeed="max">
        <route edges="lane0 lane1 lane2 lane3 lane4 lane5 lane6 lane7 lane8 lane9_1 lane9_2 lane10_1 lane10_2 lane10_3 lane11 lane12"/>
    </vehicle>
    <vehicle id="m1.49" type="type1" depart="27.10" departLane="best" departPos="base" departSpeed="max">
        <route edges="lane0 lane1 lane2 lane3 lane4 lane5 lane6 lane7 lane8 lane9_1 lane9_2 lane10_1 lane10_2 lane10_3 lane11 lane12"/>
    </vehicle>
    <vehicle id="m1.50" type="type1" depart="27.65" departLane="best" departPos="base" departSpeed="max">
        <route edges="lane0 lane1 lane2 lane3 lane4 lane5 lane6 lane7 lane8 lane9_1 lane9_2 lane10_1 lane10_2 lane10_3 lane11 lane12"/>
    </vehicle>
    <vehicle id="on1.10" type="type1" depart="28.13" departLane="random" departPos="base" departSpeed="max">
        <route edges="lane16 lane15_1 lane15_2 lane10_2 lane10_3 lane11 lane12"/>
    </vehicle>
    <vehicle id="m1.51" type="type1" depart="28.20" departLane="best" departPos="base" departSpeed="max">
        <route edges="lane0 lane1 lane2 lane3 lane4 lane5 lane6 lane7 lane8 lane9_1 lane9_2 lane10_1 lane10_2 lane10_3 lane11 lane12"/>
    </vehicle>
    <vehicle id="m1.52" type="type1" depart="28.76" departLane="best" departPos="base" departSpeed="max">
        <route edges="lane0 lane1 lane2 lane3 lane4 lane5 lane6 lane7 lane8 lane9_1 lane9_2 lane10_1 lane10_2 lane10_3 lane11 lane12"/>
    </vehicle>
    <vehicle id="m1.53" type="type1" depart="29.31" departLane="best" departPos="base" departSpeed="max">
        <route edges="lane0 lane1 lane2 lane3 lane4 lane5 lane6 lane7 lane8 lane9_1 lane9_2 lane10_1 lane10_2 lane10_3 lane11 lane12"/>
    </vehicle>
    <vehicle id="m1.54" type="type1" depart="29.86" departLane="best" departPos="base" departSpeed="max">
        <route edges="lane0 lane1 lane2 lane3 lane4 lane5 lane6 lane7 lane8 lane9_1 lane9_2 lane10_1 lane10_2 lane10_3 lane11 lane12"/>
    </vehicle>
    <vehicle id="m1.55" type="type1" depart="30.42" departLane="best" departPos="base" departSpeed="max">
        <route edges="lane0 lane1 lane2 lane3 lane4 lane5 lane6 lane7 lane8 lane9_1 lane9_2 lane10_1 lane10_2 lane10_3 lane11 lane12"/>
    </vehicle>
    <vehicle id="on1.11" type="type1" depart="30.94" departLane="random" departPos="base" departSpeed="max">
        <route edges="lane16 lane15_1 lane15_2 lane10_2 lane10_3 lane11 lane12"/>
    </vehicle>
    <vehicle id="m1.56" type="type1" depart="30.97" departLane="best" departPos="base" departSpeed="max">
        <route edges="lane0 lane1 lane2 lane3 lane4 lane5 lane6 lane7 lane8 lane9_1 lane9_2 lane10_1 lane10_2 lane10_3 lane11 lane12"/>
    </vehicle>
    <vehicle id="m1.57" type="type1" depart="31.52" departLane="best" departPos="base" departSpeed="max">
        <route edges="lane0 lane1 lane2 lane3 lane4 lane5 lane6 lane7 lane8 lane9_1 lane9_2 lane10_1 lane10_2 lane10_3 lane11 lane12"/>
    </vehicle>
    <vehicle id="m1.58" type="type1" depart="32.07" departLane="best" departPos="base" departSpeed="max">
        <route edges="lane0 lane1 lane2 lane3 lane4 lane5 lane6 lane7 lane8 lane9_1 lane9_2 lane10_1 lane10_2 lane10_3 lane11 lane12"/>
    </vehicle>
    <vehicle id="m1.59" type="type1" depart="32.63" departLane="best" departPos="base" departSpeed="max">
        <route edges="lane0 lane1 lane2 lane3 lane4 lane5 lane6 lane7 lane8 lane9_1 lane9_2 lane10_1 lane10_2 lane10_3 lane11 lane12"/>
    </vehicle>
    <vehicle id="m1.60" type="type1" depart="33.18" departLane="best" departPos="base" departSpeed="max">
        <route edges="lane0 lane1 lane2 lane3 lane4 lane5 lane6 lane7 lane8 lane9_1 lane9_2 lane10_1 lane10_2 lane10_3 lane11 lane12"/>
    </vehicle>
    <vehicle id="m1.61" type="type1" depart="33.73" departLane="best" departPos="base" departSpeed="max">
        <route edges="lane0 lane1 lane2 lane3 lane4 lane5 lane6 lane7 lane8 lane9_1 lane9_2 lane10_1 lane10_2 lane10_3 lane11 lane12"/>
    </vehicle>
    <vehicle id="on1.12" type="type1" depart="33.76" departLane="random" departPos="base" departSpeed="max">
        <route edges="lane16 lane15_1 lane15_2 lane10_2 lane10_3 lane11 lane12"/>
    </vehicle>
    <vehicle id="m1.62" type="type1" depart="34.29" departLane="best" departPos="base" departSpeed="max">
        <route edges="lane0 lane1 lane2 lane3 lane4 lane5 lane6 lane7 lane8 lane9_1 lane9_2 lane10_1 lane10_2 lane10_3 lane11 lane12"/>
    </vehicle>
    <vehicle id="m1.63" type="type1" depart="34.84" departLane="best" departPos="base" departSpeed="max">
        <route edges="lane0 lane1 lane2 lane3 lane4 lane5 lane6 lane7 lane8 lane9_1 lane9_2 lane10_1 lane10_2 lane10_3 lane11 lane12"/>
    </vehicle>
    <vehicle id="m1.64" type="type1" depart="35.39" departLane="best" departPos="base" departSpeed="max">
        <route edges="lane0 lane1 lane2 lane3 lane4 lane5 lane6 lane7 lane8 lane9_1 lane9_2 lane10_1 lane10_2 lane10_3 lane11 lane12"/>
    </vehicle>
    <vehicle id="m1.65" type="type1" depart="35.95" departLane="best" departPos="base" departSpeed="max">
        <route edges="lane0 lane1 lane2 lane3 lane4 lane5 lane6 lane7 lane8 lane9_1 lane9_2 lane10_1 lane10_2 lane10_3 lane11 lane12"/>
    </vehicle>
    <vehicle id="m1.66" type="type1" depart="36.50" departLane="best" departPos="base" departSpeed="max">
        <route edges="lane0 lane1 lane2 lane3 lane4 lane5 lane6 lane7 lane8 lane9_1 lane9_2 lane10_1 lane10_2 lane10_3 lane11 lane12"/>
    </vehicle>
    <vehicle id="on1.13" type="type1" depart="36.57" departLane="random" departPos="base" departSpeed="max">
        <route edges="lane16 lane15_1 lane15_2 lane10_2 lane10_3 lane11 lane12"/>
    </vehicle>
    <vehicle id="m1.67" type="type1" depart="37.05" departLane="best" departPos="base" departSpeed="max">
        <route edges="lane0 lane1 lane2 lane3 lane4 lane5 lane6 lane7 lane8 lane9_1 lane9_2 lane10_1 lane10_2 lane10_3 lane11 lane12"/>
    </vehicle>
    <vehicle id="m1.68" type="type1" depart="37.60" departLane="best" departPos="base" departSpeed="max">
        <route edges="lane0 lane1 lane2 lane3 lane4 lane5 lane6 lane7 lane8 lane9_1 lane9_2 lane10_1 lane10_2 lane10_3 lane11 lane12"/>
    </vehicle>
    <vehicle id="m1.69" type="type1" depart="38.16" departLane="best" departPos="base" departSpeed="max">
        <route edges="lane0 lane1 lane2 lane3 lane4 lane5 lane6 lane7 lane8 lane9_1 lane9_2 lane10_1 lane10_2 lane10_3 lane11 lane12"/>
    </vehicle>
    <vehicle id="m1.70" type="type1" depart="38.71" departLane="best" departPos="base" departSpeed="max">
        <route edges="lane0 lane1 lane2 lane3 lane4 lane5 lane6 lane7 lane8 lane9_1 lane9_2 lane10_1 lane10_2 lane10_3 lane11 lane12"/>
    </vehicle>
    <vehicle id="m1.71" type="type1" depart="39.26" departLane="best" departPos="base" departSpeed="max">
        <route edges="lane0 lane1 lane2 lane3 lane4 lane5 lane6 lane7 lane8 lane9_1 lane9_2 lane10_1 lane10_2 lane10_3 lane11 lane12"/>
    </vehicle>
    <vehicle id="on1.14" type="type1" depart="39.38" departLane="random" departPos="base" departSpeed="max">
        <route edges="lane16 lane15_1 lane15_2 lane10_2 lane10_3 lane11 lane12"/>
    </vehicle>
    <vehicle id="m1.72" type="type1" depart="39.82" departLane="best" departPos="base" departSpeed="max">
        <route edges="lane0 lane1 lane2 lane3 lane4 lane5 lane6 lane7 lane8 lane9_1 lane9_2 lane10_1 lane10_2 lane10_3 lane11 lane12"/>
    </vehicle>
    <vehicle id="off1.2" type="type1" depart="40.00" departLane="best" departPos="base" departSpeed="max">
        <route edges="lane0 lane1 lane2 lane3 lane4 lane5 lane6 lane7 lane8 lane9_1 lane13 lane14"/>
    </vehicle>
    <vehicle id="m1.73" type="type1" depart="40.37" departLane="best" departPos="base" departSpeed="max">
        <route edges="lane0 lane1 lane2 lane3 lane4 lane5 lane6 lane7 lane8 lane9_1 lane9_2 lane10_1 lane10_2 lane10_3 lane11 lane12"/>
    </vehicle>
    <vehicle id="m1.74" type="type1" depart="40.92" departLane="best" departPos="base" departSpeed="max">
        <route edges="lane0 lane1 lane2 lane3 lane4 lane5 lane6 lane7 lane8 lane9_1 lane9_2 lane10_1 lane10_2 lane10_3 lane11 lane12"/>
    </vehicle>
    <vehicle id="m1.75" type="type1" depart="41.48" departLane="best" departPos="base" departSpeed="max">
        <route edges="lane0 lane1 lane2 lane3 lane4 lane5 lane6 lane7 lane8 lane9_1 lane9_2 lane10_1 lane10_2 lane10_3 lane11 lane12"/>
    </vehicle>
    <vehicle id="m1.76" type="type1" depart="42.03" departLane="best" departPos="base" departSpeed="max">
        <route edges="lane0 lane1 lane2 lane3 lane4 lane5 lane6 lane7 lane8 lane9_1 lane9_2 lane10_1 lane10_2 lane10_3 lane11 lane12"/>
    </vehicle>
    <vehicle id="on1.15" type="type1" depart="42.20" departLane="random" departPos="base" departSpeed="max">
        <route edges="lane16 lane15_1 lane15_2 lane10_2 lane10_3 lane11 lane12"/>
    </vehicle>
    <vehicle id="m1.77" type="type1" depart="42.58" departLane="best" departPos="base" departSpeed="max">
        <route edges="lane0 lane1 lane2 lane3 lane4 lane5 lane6 lane7 lane8 lane9_1 lane9_2 lane10_1 lane10_2 lane10_3 lane11 lane12"/>
    </vehicle>
    <vehicle id="m1.78" type="type1" depart="43.13" departLane="best" departPos="base" departSpeed="max">
        <route edges="lane0 lane1 lane2 lane3 lane4 lane5 lane6 lane7 lane8 lane9_1 lane9_2 lane10_1 lane10_2 lane10_3 lane11 lane12"/>
    </vehicle>
    <vehicle id="m1.79" type="type1" depart="43.69" departLane="best" departPos="base" departSpeed="max">
        <route edges="lane0 lane1 lane2 lane3 lane4 lane5 lane6 lane7 lane8 lane9_1 lane9_2 lane10_1 lane10_2 lane10_3 lane11 lane12"/>
    </vehicle>
    <vehicle id="m1.80" type="type1" depart="44.24" departLane="best" departPos="base" departSpeed="max">
        <route edges="lane0 lane1 lane2 lane3 lane4 lane5 lane6 lane7 lane8 lane9_1 lane9_2 lane10_1 lane10_2 lane10_3 lane11 lane12"/>
    </vehicle>
    <vehicle id="m1.81" type="type1" depart="44.79" departLane="best" departPos="base" departSpeed="max">
        <route edges="lane0 lane1 lane2 lane3 lane4 lane5 lane6 lane7 lane8 lane9_1 lane9_2 lane10_1 lane10_2 lane10_3 lane11 lane12"/>
    </vehicle>
    <vehicle id="on1.16" type="type1" depart="45.01" departLane="random" departPos="base" departSpeed="max">
        <route edges="lane16 lane15_1 lane15_2 lane10_2 lane10_3 lane11 lane12"/>
    </vehicle>
    <vehicle id="m1.82" type="type1" depart="45.35" departLane="best" departPos="base" departSpeed="max">
        <route edges="lane0 lane1 lane2 lane3 lane4 lane5 lane6 lane7 lane8 lane9_1 lane9_2 lane10_1 lane10_2 lane10_3 lane11 lane12"/>
    </vehicle>
    <vehicle id="m1.83" type="type1" depart="45.90" departLane="best" departPos="base" departSpeed="max">
        <route edges="lane0 lane1 lane2 lane3 lane4 lane5 lane6 lane7 lane8 lane9_1 lane9_2 lane10_1 lane10_2 lane10_3 lane11 lane12"/>
    </vehicle>
    <vehicle id="m1.84" type="type1" depart="46.45" departLane="best" departPos="base" departSpeed="max">
        <route edges="lane0 lane1 lane2 lane3 lane4 lane5 lane6 lane7 lane8 lane9_1 lane9_2 lane10_1 lane10_2 lane10_3 lane11 lane12"/>
    </vehicle>
    <vehicle id="m1.85" type="type1" depart="47.01" departLane="best" departPos="base" departSpeed="max">
        <route edges="lane0 lane1 lane2 lane3 lane4 lane5 lane6 lane7 lane8 lane9_1 lane9_2 lane10_1 lane10_2 lane10_3 lane11 lane12"/>
    </vehicle>
    <vehicle id="m1.86" type="type1" depart="47.56" departLane="best" departPos="base" departSpeed="max">
        <route edges="lane0 lane1 lane2 lane3 lane4 lane5 lane6 lane7 lane8 lane9_1 lane9_2 lane10_1 lane10_2 lane10_3 lane11 lane12"/>
    </vehicle>
    <vehicle id="on1.17" type="type1" depart="47.82" departLane="random" departPos="base" departSpeed="max">
        <route edges="lane16 lane15_1 lane15_2 lane10_2 lane10_3 lane11 lane12"/>
    </vehicle>
    <vehicle id="m1.87" type="type1" depart="48.11" departLane="best" departPos="base" departSpeed="max">
        <route edges="lane0 lane1 lane2 lane3 lane4 lane5 lane6 lane7 lane8 lane9_1 lane9_2 lane10_1 lane10_2 lane10_3 lane11 lane12"/>
    </vehicle>
    <vehicle id="m1.88" type="type1" depart="48.66" departLane="best" departPos="base" departSpeed="max">
        <route edges="lane0 lane1 lane2 lane3 lane4 lane5 lane6 lane7 lane8 lane9_1 lane9_2 lane10_1 lane10_2 lane10_3 lane11 lane12"/>
    </vehicle>
    <vehicle id="m1.89" type="type1" depart="49.22" departLane="best" departPos="base" departSpeed="max">
        <route edges="lane0 lane1 lane2 lane3 lane4 lane5 lane6 lane7 lane8 lane9_1 lane9_2 lane10_1 lane10_2 lane10_3 lane11 lane12"/>
    </vehicle>
    <vehicle id="m1.90" type="type1" depart="49.77" departLane="best" departPos="base" departSpeed="max">
        <route edges="lane0 lane1 lane2 lane3 lane4 lane5 lane6 lane7 lane8 lane9_1 lane9_2 lane10_1 lane10_2 lane10_3 lane11 lane12"/>
    </vehicle>
    <vehicle id="m1.91" type="type1" depart="50.32" departLane="best" departPos="base" departSpeed="max">
        <route edges="lane0 lane1 lane2 lane3 lane4 lane5 lane6 lane7 lane8 lane9_1 lane9_2 lane10_1 lane10_2 lane10_3 lane11 lane12"/>
    </vehicle>
    <vehicle id="on1.18" type="type1" depart="50.63" departLane="random" departPos="base" departSpeed="max">
        <route edges="lane16 lane15_1 lane15_2 lane10_2 lane10_3 lane11 lane12"/>
    </vehicle>
    <vehicle id="m1.92" type="type1" depart="50.88" departLane="best" departPos="base" departSpeed="max">
        <route edges="lane0 lane1 lane2 lane3 lane4 lane5 lane6 lane7 lane8 lane9_1 lane9_2 lane10_1 lane10_2 lane10_3 lane11 lane12"/>
    </vehicle>
    <vehicle id="m1.93" type="type1" depart="51.43" departLane="best" departPos="base" departSpeed="max">
        <route edges="lane0 lane1 lane2 lane3 lane4 lane5 lane6 lane7 lane8 lane9_1 lane9_2 lane10_1 lane10_2 lane10_3 lane11 lane12"/>
    </vehicle>
    <vehicle id="m1.94" type="type1" depart="51.98" departLane="best" departPos="base" departSpeed="max">