<?xml version="1.0" encoding="UTF-8"?>

<!-- generated on 2022-10-25 19:58:01 by Eclipse SUMO duarouter Version 1.12.0
<configuration xmlns:xsi="http://www.w3.org/2001/XMLSchema-instance" xsi:noNamespaceSchemaLocation="http://sumo.dlr.de/xsd/duarouterConfiguration.xsd">

    <input>
        <net-file value="rongwu1.net.xml"/>
        <route-files value="random_routes_baseline_high_volume.xml"/>
    </input>

    <output>
        <output-file value="rongwu_route_baseline_high_volume.rou.xml"/>
        <alternatives-output value="rongwu_route_baseline_high_volume.rou.alt.xml"/>
    </output>

    <processing>
        <randomize-flows value="false"/>
    </processing>

    <report>
        <xml-validation value="never"/>
        <xml-validation.routes value="never"/>
    </report>

</configuration>
-->

<routes xmlns:xsi="http://www.w3.org/2001/XMLSchema-instance" xsi:noNamespaceSchemaLocation="http://sumo.dlr.de/xsd/routes_file.xsd">
    <vType id="type1" minGap="2.50" lcStrategic="1.0" lcCooperative="1.0" lcAssertive="1.0" accel="2.6" decel="4.5" emergencyDecel="9.0" sigma="0.4" tau="1.1"/>
    <vehicle id="m1.0" type="type1" depart="0.00" departLane="best" departPos="base" departSpeed="max">
        <route edges="lane0 lane1 lane2 lane3 lane4 lane5 lane6 lane7 lane8 lane9_1 lane9_2 lane10_1 lane10_2 lane10_3 lane11 lane12"/>
    </vehicle>
    <vehicle id="off1.0" type="type1" depart="0.00" departLane="best" departPos="base" departSpeed="max">
        <route edges="lane0 lane1 lane2 lane3 lane4 lane5 lane6 lane7 lane8 lane9_1 lane13 lane14"/>
    </vehicle>
    <vehicle id="on1.0" type="type1" depart="0.00" departLane="random" departPos="base" departSpeed="max">
        <route edges="lane16 lane15_1 lane15_2 lane10_2 lane10_3 lane11 lane12"/>
    </vehicle>
    <vehicle id="m1.1" type="type1" depart="0.54" departLane="best" departPos="base" departSpeed="max">
        <route edges="lane0 lane1 lane2 lane3 lane4 lane5 lane6 lane7 lane8 lane9_1 lane9_2 lane10_1 lane10_2 lane10_3 lane11 lane12"/>
    </vehicle>
    <vehicle id="m1.2" type="type1" depart="1.07" departLane="best" departPos="base" departSpeed="max">
        <route edges="lane0 lane1 lane2 lane3 lane4 lane5 lane6 lane7 lane8 lane9_1 lane9_2 lane10_1 lane10_2 lane10_3 lane11 lane12"/>
    </vehicle>
    <vehicle id="m1.3" type="type1" depart="1.61" departLane="best" departPos="base" departSpeed="max">
        <route edges="lane0 lane1 lane2 lane3 lane4 lane5 lane6 lane7 lane8 lane9_1 lane9_2 lane10_1 lane10_2 lane10_3 lane11 lane12"/>
    </vehicle>
    <vehicle id="m1.4" type="type1" depart="2.14" departLane="best" departPos="base" departSpeed="max">
        <route edges="lane0 lane1 lane2 lane3 lane4 lane5 lane6 lane7 lane8 lane9_1 lane9_2 lane10_1 lane10_2 lane10_3 lane11 lane12"/>
    </vehicle>
    <vehicle id="on1.1" type="type1" depart="2.61" departLane="random" departPos="base" departSpeed="max">
        <route edges="lane16 lane15_1 lane15_2 lane10_2 lane10_3 lane11 lane12"/>
    </vehicle>
    <vehicle id="m1.5" type="type1" depart="2.68" departLane="best" departPos="base" departSpeed="max">
        <route edges="lane0 lane1 lane2 lane3 lane4 lane5 lane6 lane7 lane8 lane9_1 lane9_2 lane10_1 lane10_2 lane10_3 lane11 lane12"/>
    </vehicle>
    <vehicle id="m1.6" type="type1" depart="3.22" departLane="best" departPos="base" departSpeed="max">
        <route edges="lane0 lane1 lane2 lane3 lane4 lane5 lane6 lane7 lane8 lane9_1 lane9_2 lane10_1 lane10_2 lane10_3 lane11 lane12"/>
    </vehicle>
    <vehicle id="m1.7" type="type1" depart="3.75" departLane="best" departPos="base" departSpeed="max">
        <route edges="lane0 lane1 lane2 lane3 lane4 lane5 lane6 lane7 lane8 lane9_1 lane9_2 lane10_1 lane10_2 lane10_3 lane11 lane12"/>
    </vehicle>
    <vehicle id="m1.8" type="type1" depart="4.29" departLane="best" departPos="base" departSpeed="max">
        <route edges="lane0 lane1 lane2 lane3 lane4 lane5 lane6 lane7 lane8 lane9_1 lane9_2 lane10_1 lane10_2 lane10_3 lane11 lane12"/>
    </vehicle>
    <vehicle id="m1.9" type="type1" depart="4.82" departLane="best" departPos="base" departSpeed="max">
        <route edges="lane0 lane1 lane2 lane3 lane4 lane5 lane6 lane7 lane8 lane9_1 lane9_2 lane10_1 lane10_2 lane10_3 lane11 lane12"/>
    </vehicle>
    <vehicle id="on1.2" type="type1" depart="5.22" departLane="random" departPos="base" departSpeed="max">
        <route edges="lane16 lane15_1 lane15_2 lane10_2 lane10_3 lane11 lane12"/>
    </vehicle>
    <vehicle id="m1.10" type="type1" depart="5.36" departLane="best" departPos="base" departSpeed="max">
        <route edges="lane0 lane1 lane2 lane3 lane4 lane5 lane6 lane7 lane8 lane9_1 lane9_2 lane10_1 lane10_2 lane10_3 lane11 lane12"/>
    </vehicle>
    <vehicle id="m1.11" type="type1" depart="5.90" departLane="best" departPos="base" departSpeed="max">
        <route edges="lane0 lane1 lane2 lane3 lane4 lane5 lane6 lane7 lane8 lane9_1 lane9_2 lane10_1 lane10_2 lane10_3 lane11 lane12"/>
    </vehicle>
    <vehicle id="m1.12" type="type1" depart="6.43" departLane="best" departPos="base" departSpeed="max">
        <route edges="lane0 lane1 lane2 lane3 lane4 lane5 lane6 lane7 lane8 lane9_1 lane9_2 lane10_1 lane10_2 lane10_3 lane11 lane12"/>
    </vehicle>
    <vehicle id="m1.13" type="type1" depart="6.97" departLane="best" departPos="base" departSpeed="max">
        <route edges="lane0 lane1 lane2 lane3 lane4 lane5 lane6 lane7 lane8 lane9_1 lane9_2 lane10_1 lane10_2 lane10_3 lane11 lane12"/>
    </vehicle>
    <vehicle id="m1.14" type="type1" depart="7.50" departLane="best" departPos="base" departSpeed="max">
        <route edges="lane0 lane1 lane2 lane3 lane4 lane5 lane6 lane7 lane8 lane9_1 lane9_2 lane10_1 lane10_2 lane10_3 lane11 lane12"/>
    </vehicle>
    <vehicle id="on1.3" type="type1" depart="7.83" departLane="random" departPos="base" departSpeed="max">
        <route edges="lane16 lane15_1 lane15_2 lane10_2 lane10_3 lane11 lane12"/>
    </vehicle>
    <vehicle id="m1.15" type="type1" depart="8.04" departLane="best" departPos="base" departSpeed="max">
        <route edges="lane0 lane1 lane2 lane3 lane4 lane5 lane6 lane7 lane8 lane9_1 lane9_2 lane10_1 lane10_2 lane10_3 lane11 lane12"/>
    </vehicle>
    <vehicle id="m1.16" type="type1" depart="8.58" departLane="best" departPos="base" departSpeed="max">
        <route edges="lane0 lane1 lane2 lane3 lane4 lane5 lane6 lane7 lane8 lane9_1 lane9_2 lane10_1 lane10_2 lane10_3 lane11 lane12"/>
    </vehicle>
    <vehicle id="m1.17" type="type1" depart="9.11" departLane="best" departPos="base" departSpeed="max">
        <route edges="lane0 lane1 lane2 lane3 lane4 lane5 lane6 lane7 lane8 lane9_1 lane9_2 lane10_1 lane10_2 lane10_3 lane11 lane12"/>
    </vehicle>
    <vehicle id="m1.18" type="type1" depart="9.65" departLane="best" departPos="base" departSpeed="max">
        <route edges="lane0 lane1 lane2 lane3 lane4 lane5 lane6 lane7 lane8 lane9_1 lane9_2 lane10_1 lane10_2 lane10_3 lane11 lane12"/>
    </vehicle>
    <vehicle id="m1.19" type="type1" depart="10.18" departLane="best" departPos="base" departSpeed="max">
        <route edges="lane0 lane1 lane2 lane3 lane4 lane5 lane6 lane7 lane8 lane9_1 lane9_2 lane10_1 lane10_2 lane10_3 lane11 lane12"/>
    </vehicle>
    <vehicle id="on1.4" type="type1" depart="10.44" departLane="random" departPos="base" departSpeed="max">
        <route edges="lane16 lane15_1 lane15_2 lane10_2 lane10_3 lane11 lane12"/>
    </vehicle>
    <vehicle id="m1.20" type="type1" depart="10.72" departLane="best" departPos="base" departSpeed="max">
        <route edges="lane0 lane1 lane2 lane3 lane4 lane5 lane6 lane7 lane8 lane9_1 lane9_2 lane10_1 lane10_2 lane10_3 lane11 lane12"/>
    </vehicle>
    <vehicle id="m1.21" type="type1" depart="11.26" departLane="best" departPos="base" departSpeed="max">
        <route edges="lane0 lane1 lane2 lane3 lane4 lane5 lane6 lane7 lane8 lane9_1 lane9_2 lane10_1 lane10_2 lane10_3 lane11 lane12"/>
    </vehicle>
    <vehicle id="m1.22" type="type1" depart="11.79" departLane="best" departPos="base" departSpeed="max">
        <route edges="lane0 lane1 lane2 lane3 lane4 lane5 lane6 lane7 lane8 lane9_1 lane9_2 lane10_1 lane10_2 lane10_3 lane11 lane12"/>
    </vehicle>
    <vehicle id="m1.23" type="type1" depart="12.33" departLane="best" departPos="base" departSpeed="max">
        <route edges="lane0 lane1 lane2 lane3 lane4 lane5 lane6 lane7 lane8 lane9_1 lane9_2 lane10_1 lane10_2 lane10_3 lane11 lane12"/>
    </vehicle>
    <vehicle id="m1.24" type="type1" depart="12.86" departLane="best" departPos="base" departSpeed="max">
        <route edges="lane0 lane1 lane2 lane3 lane4 lane5 lane6 lane7 lane8 lane9_1 lane9_2 lane10_1 lane10_2 lane10_3 lane11 lane12"/>
    </vehicle>
    <vehicle id="on1.5" type="type1" depart="13.05" departLane="random" departPos="base" departSpeed="max">
        <route edges="lane16 lane15_1 lane15_2 lane10_2 lane10_3 lane11 lane12"/>
    </vehicle>
    <vehicle id="m1.25" type="type1" depart="13.40" departLane="best" departPos="base" departSpeed="max">
        <route edges="lane0 lane1 lane2 lane3 lane4 lane5 lane6 lane7 lane8 lane9_1 lane9_2 lane10_1 lane10_2 lane10_3 lane11 lane12"/>
    </vehicle>
    <vehicle id="m1.26" type="type1" depart="13.94" departLane="best" departPos="base" departSpeed="max">
        <route edges="lane0 lane1 lane2 lane3 lane4 lane5 lane6 lane7 lane8 lane9_1 lane9_2 lane10_1 lane10_2 lane10_3 lane11 lane12"/>
    </vehicle>
    <vehicle id="m1.27" type="type1" depart="14.47" departLane="best" departPos="base" departSpeed="max">
        <route edges="lane0 lane1 lane2 lane3 lane4 lane5 lane6 lane7 lane8 lane9_1 lane9_2 lane10_1 lane10_2 lane10_3 lane11 lane12"/>
    </vehicle>
    <vehicle id="m1.28" type="type1" depart="15.01" departLane="best" departPos="base" departSpeed="max">
        <route edges="lane0 lane1 lane2 lane3 lane4 lane5 lane6 lane7 lane8 lane9_1 lane9_2 lane10_1 lane10_2 lane10_3 lane11 lane12"/>
    </vehicle>
    <vehicle id="m1.29" type="type1" depart="15.54" departLane="best" departPos="base" departSpeed="max">
        <route edges="lane0 lane1 lane2 lane3 lane4 lane5 lane6 lane7 lane8 lane9_1 lane9_2 lane10_1 lane10_2 lane10_3 lane11 lane12"/>
    </vehicle>
    <vehicle id="on1.6" type="type1" depart="15.65" departLane="random" departPos="base" departSpeed="max">
        <route edges="lane16 lane15_1 lane15_2 lane10_2 lane10_3 lane11 lane12"/>
    </vehicle>
    <vehicle id="m1.30" type="type1" depart="16.08" departLane="best" departPos="base" departSpeed="max">
        <route edges="lane0 lane1 lane2 lane3 lane4 lane5 lane6 lane7 lane8 lane9_1 lane9_2 lane10_1 lane10_2 lane10_3 lane11 lane12"/>
    </vehicle>
    <vehicle id="m1.31" type="type1" depart="16.62" departLane="best" departPos="base" departSpeed="max">
        <route edges="lane0 lane1 lane2 lane3 lane4 lane5 lane6 lane7 lane8 lane9_1 lane9_2 lane10_1 lane10_2 lane10_3 lane11 lane12"/>
    </vehicle>
    <vehicle id="m1.32" type="type1" depart="17.15" departLane="best" departPos="base" departSpeed="max">
        <route edges="lane0 lane1 lane2 lane3 lane4 lane5 lane6 lane7 lane8 lane9_1 lane9_2 lane10_1 lane10_2 lane10_3 lane11 lane12"/>
    </vehicle>
    <vehicle id="m1.33" type="type1" depart="17.69" departLane="best" departPos="base" departSpeed="max">
        <route edges="lane0 lane1 lane2 lane3 lane4 lane5 lane6 lane7 lane8 lane9_1 lane9_2 lane10_1 lane10_2 lane10_3 lane11 lane12"/>
    </vehicle>
    <vehicle id="m1.34" type="type1" depart="18.22" departLane="best" departPos="base" departSpeed="max">
        <route edges="lane0 lane1 lane2 lane3 lane4 lane5 lane6 lane7 lane8 lane9_1 lane9_2 lane10_1 lane10_2 lane10_3 lane11 lane12"/>
    </vehicle>
    <vehicle id="on1.7" type="type1" depart="18.26" departLane="random" departPos="base" departSpeed="max">
        <route edges="lane16 lane15_1 lane15_2 lane10_2 lane10_3 lane11 lane12"/>
    </vehicle>
    <vehicle id="m1.35" type="type1" depart="18.76" departLane="best" departPos="base" departSpeed="max">
        <route edges="lane0 lane1 lane2 lane3 lane4 lane5 lane6 lane7 lane8 lane9_1 lane9_2 lane10_1 lane10_2 lane10_3 lane11 lane12"/>
    </vehicle>
    <vehicle id="m1.36" type="type1" depart="19.30" departLane="best" departPos="base" departSpeed="max">
        <route edges="lane0 lane1 lane2 lane3 lane4 lane5 lane6 lane7 lane8 lane9_1 lane9_2 lane10_1 lane10_2 lane10_3 lane11 lane12"/>
    </vehicle>
    <vehicle id="m1.37" type="type1" depart="19.83" departLane="best" departPos="base" departSpeed="max">
        <route edges="lane0 lane1 lane2 lane3 lane4 lane5 lane6 lane7 lane8 lane9_1 lane9_2 lane10_1 lane10_2 lane10_3 lane11 lane12"/>
    </vehicle>
    <vehicle id="off1.1" type="type1" depart="20.00" departLane="best" departPos="base" departSpeed="max">
        <route edges="lane0 lane1 lane2 lane3 lane4 lane5 lane6 lane7 lane8 lane9_1 lane13 lane14"/>
    </vehicle>
    <vehicle id="m1.38" type="type1" depart="20.37" departLane="best" departPos="base" departSpeed="max">
        <route edges="lane0 lane1 lane2 lane3 lane4 lane5 lane6 lane7 lane8 lane9_1 lane9_2 lane10_1 lane10_2 lane10_3 lane11 lane12"/>
    </vehicle>
    <vehicle id="on1.8" type="type1" depart="20.87" departLane="random" departPos="base" departSpeed="max">
        <route edges="lane16 lane15_1 lane15_2 lane10_2 lane10_3 lane11 lane12"/>
    </vehicle>
    <vehicle id="m1.39" type="type1" depart="20.90" departLane="best" departPos="base" departSpeed="max">
        <route edges="lane0 lane1 lane2 lane3 lane4 lane5 lane6 lane7 lane8 lane9_1 lane9_2 lane10_1 lane10_2 lane10_3 lane11 lane12"/>
    </vehicle>
    <vehicle id="m1.40" type="type1" depart="21.44" departLane="best" departPos="base" departSpeed="max">
        <route edges="lane0 lane1 lane2 lane3 lane4 lane5 lane6 lane7 lane8 lane9_1 lane9_2 lane10_1 lane10_2 lane10_3 lane11 lane12"/>
    </vehicle>
    <vehicle id="m1.41" type="type1" depart="21.98" departLane="best" departPos="base" departSpeed="max">
        <route edges="lane0 lane1 lane2 lane3 lane4 lane5 lane6 lane7 lane8 lane9_1 lane9_2 lane10_1 lane10_2 lane10_3 lane11 lane12"/>
    </vehicle>
    <vehicle id="m1.42" type="type1" depart="22.51" departLane="best" departPos="base" departSpeed="max">
        <route edges="lane0 lane1 lane2 lane3 lane4 lane5 lane6 lane7 lane8 lane9_1 lane9_2 lane10_1 lane10_2 lane10_3 lane11 lane12"/>
    </vehicle>
    <vehicle id="m1.43" type="type1" depart="23.05" departLane="best" departPos="base" departSpeed="max">
        <route edges="lane0 lane1 lane2 lane3 lane4 lane5 lane6 lane7 lane8 lane9_1 lane9_2 lane10_1 lane10_2 lane10_3 lane11 lane12"/>
    </vehicle>
    <vehicle id="on1.9" type="type1" depart="23.48" departLane="random" departPos="base" departSpeed="max">
        <route edges="lane16 lane15_1 lane15_2 lane10_2 lane10_3 lane11 lane12"/>
    </vehicle>
    <vehicle id="m1.44" type="type1" depart="23.58" departLane="best" departPos="base" departSpeed="max">
        <route edges="lane0 lane1 lane2 lane3 lane4 lane5 lane6 lane7 lane8 lane9_1 lane9_2 lane10_1 lane10_2 lane10_3 lane11 lane12"/>
    </vehicle>
    <vehicle id="m1.45" type="type1" depart="24.12" departLane="best" departPos="base" departSpeed="max">
        <route edges="lane0 lane1 lane2 lane3 lane4 lane5 lane6 lane7 lane8 lane9_1 lane9_2 lane10_1 lane10_2 lane10_3 lane11 lane12"/>
    </vehicle>
    <vehicle id="m1.46" type="type1" depart="24.66" departLane="best" departPos="base" departSpeed="max">
        <route edges="lane0 lane1 lane2 lane3 lane4 lane5 lane6 lane7 lane8 lane9_1 lane9_2 lane10_1 lane10_2 lane10_3 lane11 lane12"/>
    </vehicle>
    <vehicle id="m1.47" type="type1" depart="25.19" departLane="best" departPos="base" departSpeed="max">
        <route edges="lane0 lane1 lane2 lane3 lane4 lane5 lane6 lane7 lane8 lane9_1 lane9_2 lane10_1 lane10_2 lane10_3 lane11 lane12"/>
    </vehicle>
    <vehicle id="m1.48" type="type1" depart="25.73" departLane="best" departPos="base" departSpeed="max">
        <route edges="lane0 lane1 lane2 lane3 lane4 lane5 lane6 lane7 lane8 lane9_1 lane9_2 lane10_1 lane10_2 lane10_3 lane11 lane12"/>
    </vehicle>
    <vehicle id="on1.10" type="type1" depart="26.09" departLane="random" departPos="base" departSpeed="max">
        <route edges="lane16 lane15_1 lane15_2 lane10_2 lane10_3 lane11 lane12"/>
    </vehicle>
    <vehicle id="m1.49" type="type1" depart="26.26" departLane="best" departPos="base" departSpeed="max">
        <route edges="lane0 lane1 lane2 lane3 lane4 lane5 lane6 lane7 lane8 lane9_1 lane9_2 lane10_1 lane10_2 lane10_3 lane11 lane12"/>
    </vehicle>
    <vehicle id="m1.50" type="type1" depart="26.80" departLane="best" departPos="base" departSpeed="max">
        <route edges="lane0 lane1 lane2 lane3 lane4 lane5 lane6 lane7 lane8 lane9_1 lane9_2 lane10_1 lane10_2 lane10_3 lane11 lane12"/>
    </vehicle>
    <vehicle id="m1.51" type="type1" depart="27.34" departLane="best" departPos="base" departSpeed="max">
        <route edges="lane0 lane1 lane2 lane3 lane4 lane5 lane6 lane7 lane8 lane9_1 lane9_2 lane10_1 lane10_2 lane10_3 lane11 lane12"/>
    </vehicle>
    <vehicle id="m1.52" type="type1" depart="27.87" departLane="best" departPos="base" departSpeed="max">
        <route edges="lane0 lane1 lane2 lane3 lane4 lane5 lane6 lane7 lane8 lane9_1 lane9_2 lane10_1 lane10_2 lane10_3 lane11 lane12"/>
    </vehicle>
    <vehicle id="m1.53" type="type1" depart="28.41" departLane="best" departPos="base" departSpeed="max">
        <route edges="lane0 lane1 lane2 lane3 lane4 lane5 lane6 lane7 lane8 lane9_1 lane9_2 lane10_1 lane10_2 lane10_3 lane11 lane12"/>
    </vehicle>
    <vehicle id="on1.11" type="type1" depart="28.70" departLane="random" departPos="base" departSpeed="max">
        <route edges="lane16 lane15_1 lane15_2 lane10_2 lane10_3 lane11 lane12"/>
    </vehicle>
    <vehicle id="m1.54" type="type1" depart="28.94" departLane="best" departPos="base" departSpeed="max">
        <route edges="lane0 lane1 lane2 lane3 lane4 lane5 lane6 lane7 lane8 lane9_1 lane9_2 lane10_1 lane10_2 lane10_3 lane11 lane12"/>
    </vehicle>
    <vehicle id="m1.55" type="type1" depart="29.48" departLane="best" departPos="base" departSpeed="max">
        <route edges="lane0 lane1 lane2 lane3 lane4 lane5 lane6 lane7 lane8 lane9_1 lane9_2 lane10_1 lane10_2 lane10_3 lane11 lane12"/>
    </vehicle>
    <vehicle id="m1.56" type="type1" depart="30.02" departLane="best" departPos="base" departSpeed="max">
        <route edges="lane0 lane1 lane2 lane3 lane4 lane5 lane6 lane7 lane8 lane9_1 lane9_2 lane10_1 lane10_2 lane10_3 lane11 lane12"/>
    </vehicle>
    <vehicle id="m1.57" type="type1" depart="30.55" departLane="best" departPos="base" departSpeed="max">
        <route edges="lane0 lane1 lane2 lane3 lane4 lane5 lane6 lane7 lane8 lane9_1 lane9_2 lane10_1 lane10_2 lane10_3 lane11 lane12"/>
    </vehicle>
    <vehicle id="m1.58" type="type1" depart="31.09" departLane="best" departPos="base" departSpeed="max">
        <route edges="lane0 lane1 lane2 lane3 lane4 lane5 lane6 lane7 lane8 lane9_1 lane9_2 lane10_1 lane10_2 lane10_3 lane11 lane12"/>
    </vehicle>
    <vehicle id="on1.12" type="type1" depart="31.31" departLane="random" departPos="base" departSpeed="max">
        <route edges="lane16 lane15_1 lane15_2 lane10_2 lane10_3 lane11 lane12"/>
    </vehicle>
    <vehicle id="m1.59" type="type1" depart="31.62" departLane="best" departPos="base" departSpeed="max">
        <route edges="lane0 lane1 lane2 lane3 lane4 lane5 lane6 lane7 lane8 lane9_1 lane9_2 lane10_1 lane10_2 lane10_3 lane11 lane12"/>
    </vehicle>
    <vehicle id="m1.60" type="type1" depart="32.16" departLane="best" departPos="base" departSpeed="max">
        <route edges="lane0 lane1 lane2 lane3 lane4 lane5 lane6 lane7 lane8 lane9_1 lane9_2 lane10_1 lane10_2 lane10_3 lane11 lane12"/>
    </vehicle>
    <vehicle id="m1.61" type="type1" depart="32.70" departLane="best" departPos="base" departSpeed="max">
        <route edges="lane0 lane1 lane2 lane3 lane4 lane5 lane6 lane7 lane8 lane9_1 lane9_2 lane10_1 lane10_2 lane10_3 lane11 lane12"/>
    </vehicle>
    <vehicle id="m1.62" type="type1" depart="33.23" departLane="best" departPos="base" departSpeed="max">
        <route edges="lane0 lane1 lane2 lane3 lane4 lane5 lane6 lane7 lane8 lane9_1 lane9_2 lane10_1 lane10_2 lane10_3 lane11 lane12"/>
    </vehicle>
    <vehicle id="m1.63" type="type1" depart="33.77" departLane="best" departPos="base" departSpeed="max">
        <route edges="lane0 lane1 lane2 lane3 lane4 lane5 lane6 lane7 lane8 lane9_1 lane9_2 lane10_1 lane10_2 lane10_3 lane11 lane12"/>
    </vehicle>
    <vehicle id="on1.13" type="type1" depart="33.92" departLane="random" departPos="base" departSpeed="max">
        <route edges="lane16 lane15_1 lane15_2 lane10_2 lane10_3 lane11 lane12"/>
    </vehicle>
    <vehicle id="m1.64" type="type1" depart="34.30" departLane="best" departPos="base" departSpeed="max">
        <route edges="lane0 lane1 lane2 lane3 lane4 lane5 lane6 lane7 lane8 lane9_1 lane9_2 lane10_1 lane10_2 lane10_3 lane11 lane12"/>
    </vehicle>
    <vehicle id="m1.65" type="type1" depart="34.84" departLane="best" departPos="base" departSpeed="max">
        <route edges="lane0 lane1 lane2 lane3 lane4 lane5 lane6 lane7 lane8 lane9_1 lane9_2 lane10_1 lane10_2 lane10_3 lane11 lane12"/>
    </vehicle>
    <vehicle id="m1.66" type="type1" depart="35.38" departLane="best" departPos="base" departSpeed="max">
        <route edges="lane0 lane1 lane2 lane3 lane4 lane5 lane6 lane7 lane8 lane9_1 lane9_2 lane10_1 lane10_2 lane10_3 lane11 lane12"/>
    </vehicle>
    <vehicle id="m1.67" type="type1" depart="35.91" departLane="best" departPos="base" departSpeed="max">
        <route edges="lane0 lane1 lane2 lane3 lane4 lane5 lane6 lane7 lane8 lane9_1 lane9_2 lane10_1 lane10_2 lane10_3 lane11 lane12"/>
    </vehicle>
    <vehicle id="m1.68" type="type1" depart="36.45" departLane="best" departPos="base" departSpeed="max">
        <route edges="lane0 lane1 lane2 lane3 lane4 lane5 lane6 lane7 lane8 lane9_1 lane9_2 lane10_1 lane10_2 lane10_3 lane11 lane12"/>
    </vehicle>
    <vehicle id="on1.14" type="type1" depart="36.53" departLane="random" departPos="base" departSpeed="max">
        <route edges="lane16 lane15_1 lane15_2 lane10_2 lane10_3 lane11 lane12"/>
    </vehicle>
    <vehicle id="m1.69" type="type1" depart="36.98" departLane="best" departPos="base" departSpeed="max">
        <route edges="lane0 lane1 lane2 lane3 lane4 lane5 lane6 lane7 lane8 lane9_1 lane9_2 lane10_1 lane10_2 lane10_3 lane11 lane12"/>
    </vehicle>
    <vehicle id="m1.70" type="type1" depart="37.52" departLane="best" departPos="base" departSpeed="max">
        <route edges="lane0 lane1 lane2 lane3 lane4 lane5 lane6 lane7 lane8 lane9_1 lane9_2 lane10_1 lane10_2 lane10_3 lane11 lane12"/>
    </vehicle>
    <vehicle id="m1.71" type="type1" depart="38.06" departLane="best" departPos="base" departSpeed="max">
        <route edges="lane0 lane1 lane2 lane3 lane4 lane5 lane6 lane7 lane8 lane9_1 lane9_2 lane10_1 lane10_2 lane10_3 lane11 lane12"/>
    </vehicle>
    <vehicle id="m1.72" type="type1" depart="38.59" departLane="best" departPos="base" departSpeed="max">
        <route edges="lane0 lane1 lane2 lane3 lane4 lane5 lane6 lane7 lane8 lane9_1 lane9_2 lane10_1 lane10_2 lane10_3 lane11 lane12"/>
    </vehicle>
    <vehicle id="m1.73" type="type1" depart="39.13" departLane="best" departPos="base" departSpeed="max">
        <route edges="lane0 lane1 lane2 lane3 lane4 lane5 lane6 lane7 lane8 lane9_1 lane9_2 lane10_1 lane10_2 lane10_3 lane11 lane12"/>
    </vehicle>
    <vehicle id="on1.15" type="type1" depart="39.14" departLane="random" departPos="base" departSpeed="max">
        <route edges="lane16 lane15_1 lane15_2 lane10_2 lane10_3 lane11 lane12"/>
    </vehicle>
    <vehicle id="m1.74" type="type1" depart="39.66" departLane="best" departPos="base" departSpeed="max">
        <route edges="lane0 lane1 lane2 lane3 lane4 lane5 lane6 lane7 lane8 lane9_1 lane9_2 lane10_1 lane10_2 lane10_3 lane11 lane12"/>
    </vehicle>
    <vehicle id="off1.2" type="type1" depart="40.00" departLane="best" departPos="base" departSpeed="max">
        <route edges="lane0 lane1 lane2 lane3 lane4 lane5 lane6 lane7 lane8 lane9_1 lane13 lane14"/>
    </vehicle>
    <vehicle id="m1.75" type="type1" depart="40.20" departLane="best" departPos="base" departSpeed="max">
        <route edges="lane0 lane1 lane2 lane3 lane4 lane5 lane6 lane7 lane8 lane9_1 lane9_2 lane10_1 lane10_2 lane10_3 lane11 lane12"/>
    </vehicle>
    <vehicle id="m1.76" type="type1" depart="40.74" departLane="best" departPos="base" departSpeed="max">
        <route edges="lane0 lane1 lane2 lane3 lane4 lane5 lane6 lane7 lane8 lane9_1 lane9_2 lane10_1 lane10_2 lane10_3 lane11 lane12"/>
    </vehicle>
    <vehicle id="m1.77" type="type1" depart="41.27" departLane="best" departPos="base" departSpeed="max">
        <route edges="lane0 lane1 lane2 lane3 lane4 lane5 lane6 lane7 lane8 lane9_1 lane9_2 lane10_1 lane10_2 lane10_3 lane11 lane12"/>
    </vehicle>
    <vehicle id="on1.16" type="type1" depart="41.74" departLane="random" departPos="base" departSpeed="max">
        <route edges="lane16 lane15_1 lane15_2 lane10_2 lane10_3 lane11 lane12"/>
    </vehicle>
    <vehicle id="m1.78" type="type1" depart="41.81" departLane="best" departPos="base" departSpeed="max">
        <route edges="lane0 lane1 lane2 lane3 lane4 lane5 lane6 lane7 lane8 lane9_1 lane9_2 lane10_1 lane10_2 lane10_3 lane11 lane12"/>
    </vehicle>
    <vehicle id="m1.79" type="type1" depart="42.34" departLane="best" departPos="base" departSpeed="max">
        <route edges="lane0 lane1 lane2 lane3 lane4 lane5 lane6 lane7 lane8 lane9_1 lane9_2 lane10_1 lane10_2 lane10_3 lane11 lane12"/>
    </vehicle>
    <vehicle id="m1.80" type="type1" depart="42.88" departLane="best" departPos="base" departSpeed="max">
        <route edges="lane0 lane1 lane2 lane3 lane4 lane5 lane6 lane7 lane8 lane9_1 lane9_2 lane10_1 lane10_2 lane10_3 lane11 lane12"/>
    </vehicle>
    <vehicle id="m1.81" type="type1" depart="43.42" departLane="best" departPos="base" departSpeed="max">
        <route edges="lane0 lane1 lane2 lane3 lane4 lane5 lane6 lane7 lane8 lane9_1 lane9_2 lane10_1 lane10_2 lane10_3 lane11 lane12"/>
    </vehicle>
    <vehicle id="m1.82" type="type1" depart="43.95" departLane="best" departPos="base" departSpeed="max">
        <route edges="lane0 lane1 lane2 lane3 lane4 lane5 lane6 lane7 lane8 lane9_1 lane9_2 lane10_1 lane10_2 lane10_3 lane11 lane12"/>
    </vehicle>
    <vehicle id="on1.17" type="type1" depart="44.35" departLane="random" departPos="base" departSpeed="max">
        <route edges="lane16 lane15_1 lane15_2 lane10_2 lane10_3 lane11 lane12"/>
    </vehicle>
    <vehicle id="m1.83" type="type1" depart="44.49" departLane="best" departPos="base" departSpeed="max">
        <route edges="lane0 lane1 lane2 lane3 lane4 lane5 lane6 lane7 lane8 lane9_1 lane9_2 lane10_1 lane10_2 lane10_3 lane11 lane12"/>
    </vehicle>
    <vehicle id="m1.84" type="type1" depart="45.02" departLane="best" departPos="base" departSpeed="max">
        <route edges="lane0 lane1 lane2 lane3 lane4 lane5 lane6 lane7 lane8 lane9_1 lane9_2 lane10_1 lane10_2 lane10_3 lane11 lane12"/>
    </vehicle>
    <vehicle id="m1.85" type="type1" depart="45.56" departLane="best" departPos="base" departSpeed="max">
        <route edges="lane0 lane1 lane2 lane3 lane4 lane5 lane6 lane7 lane8 lane9_1 lane9_2 lane10_1 lane10_2 lane10_3 lane11 lane12"/>
    </vehicle>
    <vehicle id="m1.86" type="type1" depart="46.10" departLane="best" departPos="base" departSpeed="max">
        <route edges="lane0 lane1 lane2 lane3 lane4 lane5 lane6 lane7 lane8 lane9_1 lane9_2 lane10_1 lane10_2 lane10_3 lane11 lane12"/>
    </vehicle>
    <vehicle id="m1.87" type="type1" depart="46.63" departLane="best" departPos="base" departSpeed="max">
        <route edges="lane0 lane1 lane2 lane3 lane4 lane5 lane6 lane7 lane8 lane9_1 lane9_2 lane10_1 lane10_2 lane10_3 lane11 lane12"/>
    </vehicle>
    <vehicle id="on1.18" type="type1" depart="46.96" departLane="random" departPos="base" departSpeed="max">
        <route edges="lane16 lane15_1 lane15_2 lane10_2 lane10_3 lane11 lane12"/>
    </vehicle>
    <vehicle id="m1.88" type="type1" depart="47.17" departLane="best" departPos="base" departSpeed="max">
        <route edges="lane0 lane1 lane2 lane3 lane4 lane5 lane6 lane7 lane8 lane9_1 lane9_2 lane10_1 lane10_2 lane10_3 lane11 lane12"/>
    </vehicle>
    <vehicle id="m1.89" type="type1" depart="47.70" departLane="best" departPos="base" departSpeed="max">
        <route edges="lane0 lane1 lane2 lane3 lane4 lane5 lane6 lane7 lane8 lane9_1 lane9_2 lane10_1 lane10_2 lane10_3 lane11 lane12"/>
    </vehicle>
    <vehicle id="m1.90" type="type1" depart="48.24" departLane="best" departPos="base" departSpeed="max">
        <route edges="lane0 lane1 lane2 lane3 lane4 lane5 lane6 lane7 lane8 lane9_1 lane9_2 lane10_1 lane10_2 lane10_3 lane11 lane12"/>
    </vehicle>
    <vehicle id="m1.91" type="type1" depart="48.78" departLane="best" departPos="base" departSpeed="max">
        <route edges="lane0 lane1 lane2 lane3 lane4 lane5 lane6 lane7 lane8 lane9_1 lane9_2 lane10_1 lane10_2 lane10_3 lane11 lane12"/>
    </vehicle>
    <vehicle id="m1.92" type="type1" depart="49.31" departLane="best" departPos="base" departSpeed="max">
        <route edges="lane0 lane1 lane2 lane3 lane4 lane5 lane6 lane7 lane8 lane9_1 lane9_2 lane10_1 lane10_2 lane10_3 lane11 lane12"/>
    </vehicle>
    <vehicle id="on1.19" type="type1" depart="49.57" departLane="random" departPos="base" departSpeed="max">
        <route edges="lane16 lane15_1 lane15_2 lane10_2 lane10_3 lane11 lane12"/>
    </vehicle>
    <vehicle id="m1.93" type="type1" depart="49.85" departLane="best" departPos="base" departSpeed="max">
        <route edges="lane0 lane1 lane2 lane3 lane4 lane5 lane6 lane7 lane8 lane9_1 lane9_2 lane10_1 lane10_2 lane10_3 lane11 lane12"/>