<?xml version="1.0" encoding="UTF-8"?>

<!-- generated on 2022-10-18 02:19:27 by Eclipse SUMO duarouter Version 1.12.0
<configuration xmlns:xsi="http://www.w3.org/2001/XMLSchema-instance" xsi:noNamespaceSchemaLocation="http://sumo.dlr.de/xsd/duarouterConfiguration.xsd">

    <input>
        <net-file value="rongwu1.net.xml"/>
        <route-files value="random_routes_test_baseline.xml"/>
    </input>

    <output>
        <output-file value="rongwu_route_baseline.rou.xml"/>
        <alternatives-output value="rongwu_route_baseline.rou.alt.xml"/>
    </output>

    <processing>
        <randomize-flows value="false"/>
    </processing>

    <report>
        <xml-validation value="never"/>
        <xml-validation.routes value="never"/>
    </report>

</configuration>
-->

<routes xmlns:xsi="http://www.w3.org/2001/XMLSchema-instance" xsi:noNamespaceSchemaLocation="http://sumo.dlr.de/xsd/routes_file.xsd">
    <vType id="type1" minGap="2.50" lcStrategic="1.0" lcCooperative="1.0" lcAssertive="1.0" accel="2.6" decel="4.5" emergencyDecel="9.0" sigma="0.4" tau="1.1"/>
    <vehicle id="m1.0" type="type1" depart="0.00" departLane="best" departPos="base" departSpeed="max">
        <route edges="lane0 lane1 lane2 lane3 lane4 lane5 lane6 lane7 lane8 lane9_1 lane9_2 lane10_1 lane10_2 lane10_3 lane11 lane12"/>
    </vehicle>
    <vehicle id="off1.0" type="type1" depart="0.00" departLane="best" departPos="base" departSpeed="max">
        <route edges="lane0 lane1 lane2 lane3 lane4 lane5 lane6 lane7 lane8 lane9_1 lane13 lane14"/>
    </vehicle>
    <vehicle id="on1.0" type="type1" depart="0.00" departLane="random" departPos="base" departSpeed="max">
        <route edges="lane16 lane15_1 lane15_2 lane10_2 lane10_3 lane11 lane12"/>
    </vehicle>
    <vehicle id="m1.1" type="type1" depart="0.57" departLane="best" departPos="base" departSpeed="max">
        <route edges="lane0 lane1 lane2 lane3 lane4 lane5 lane6 lane7 lane8 lane9_1 lane9_2 lane10_1 lane10_2 lane10_3 lane11 lane12"/>
    </vehicle>
    <vehicle id="m1.2" type="type1" depart="1.14" departLane="best" departPos="base" departSpeed="max">
        <route edges="lane0 lane1 lane2 lane3 lane4 lane5 lane6 lane7 lane8 lane9_1 lane9_2 lane10_1 lane10_2 lane10_3 lane11 lane12"/>
    </vehicle>
    <vehicle id="m1.3" type="type1" depart="1.71" departLane="best" departPos="base" departSpeed="max">
        <route edges="lane0 lane1 lane2 lane3 lane4 lane5 lane6 lane7 lane8 lane9_1 lane9_2 lane10_1 lane10_2 lane10_3 lane11 lane12"/>
    </vehicle>
    <vehicle id="m1.4" type="type1" depart="2.28" departLane="best" departPos="base" departSpeed="max">
        <route edges="lane0 lane1 lane2 lane3 lane4 lane5 lane6 lane7 lane8 lane9_1 lane9_2 lane10_1 lane10_2 lane10_3 lane11 lane12"/>
    </vehicle>
    <vehicle id="m1.5" type="type1" depart="2.85" departLane="best" departPos="base" departSpeed="max">
        <route edges="lane0 lane1 lane2 lane3 lane4 lane5 lane6 lane7 lane8 lane9_1 lane9_2 lane10_1 lane10_2 lane10_3 lane11 lane12"/>
    </vehicle>
    <vehicle id="on1.1" type="type1" depart="3.05" departLane="random" departPos="base" departSpeed="max">
        <route edges="lane16 lane15_1 lane15_2 lane10_2 lane10_3 lane11 lane12"/>
    </vehicle>
    <vehicle id="m1.6" type="type1" depart="3.42" departLane="best" departPos="base" departSpeed="max">
        <route edges="lane0 lane1 lane2 lane3 lane4 lane5 lane6 lane7 lane8 lane9_1 lane9_2 lane10_1 lane10_2 lane10_3 lane11 lane12"/>
    </vehicle>
    <vehicle id="m1.7" type="type1" depart="3.99" departLane="best" departPos="base" departSpeed="max">
        <route edges="lane0 lane1 lane2 lane3 lane4 lane5 lane6 lane7 lane8 lane9_1 lane9_2 lane10_1 lane10_2 lane10_3 lane11 lane12"/>
    </vehicle>
    <vehicle id="m1.8" type="type1" depart="4.56" departLane="best" departPos="base" departSpeed="max">
        <route edges="lane0 lane1 lane2 lane3 lane4 lane5 lane6 lane7 lane8 lane9_1 lane9_2 lane10_1 lane10_2 lane10_3 lane11 lane12"/>
    </vehicle>
    <vehicle id="m1.9" type="type1" depart="5.13" departLane="best" departPos="base" departSpeed="max">
        <route edges="lane0 lane1 lane2 lane3 lane4 lane5 lane6 lane7 lane8 lane9_1 lane9_2 lane10_1 lane10_2 lane10_3 lane11 lane12"/>
    </vehicle>
    <vehicle id="m1.10" type="type1" depart="5.70" departLane="best" departPos="base" departSpeed="max">
        <route edges="lane0 lane1 lane2 lane3 lane4 lane5 lane6 lane7 lane8 lane9_1 lane9_2 lane10_1 lane10_2 lane10_3 lane11 lane12"/>
    </vehicle>
    <vehicle id="on1.2" type="type1" depart="6.10" departLane="random" departPos="base" departSpeed="max">
        <route edges="lane16 lane15_1 lane15_2 lane10_2 lane10_3 lane11 lane12"/>
    </vehicle>
    <vehicle id="m1.11" type="type1" depart="6.27" departLane="best" departPos="base" departSpeed="max">
        <route edges="lane0 lane1 lane2 lane3 lane4 lane5 lane6 lane7 lane8 lane9_1 lane9_2 lane10_1 lane10_2 lane10_3 lane11 lane12"/>
    </vehicle>
    <vehicle id="m1.12" type="type1" depart="6.84" departLane="best" departPos="base" departSpeed="max">
        <route edges="lane0 lane1 lane2 lane3 lane4 lane5 lane6 lane7 lane8 lane9_1 lane9_2 lane10_1 lane10_2 lane10_3 lane11 lane12"/>
    </vehicle>
    <vehicle id="m1.13" type="type1" depart="7.41" departLane="best" departPos="base" departSpeed="max">
        <route edges="lane0 lane1 lane2 lane3 lane4 lane5 lane6 lane7 lane8 lane9_1 lane9_2 lane10_1 lane10_2 lane10_3 lane11 lane12"/>
    </vehicle>
    <vehicle id="m1.14" type="type1" depart="7.98" departLane="best" departPos="base" departSpeed="max">
        <route edges="lane0 lane1 lane2 lane3 lane4 lane5 lane6 lane7 lane8 lane9_1 lane9_2 lane10_1 lane10_2 lane10_3 lane11 lane12"/>
    </vehicle>
    <vehicle id="m1.15" type="type1" depart="8.55" departLane="best" departPos="base" departSpeed="max">
        <route edges="lane0 lane1 lane2 lane3 lane4 lane5 lane6 lane7 lane8 lane9_1 lane9_2 lane10_1 lane10_2 lane10_3 lane11 lane12"/>
    </vehicle>
    <vehicle id="m1.16" type="type1" depart="9.12" departLane="best" departPos="base" departSpeed="max">
        <route edges="lane0 lane1 lane2 lane3 lane4 lane5 lane6 lane7 lane8 lane9_1 lane9_2 lane10_1 lane10_2 lane10_3 lane11 lane12"/>
    </vehicle>
    <vehicle id="on1.3" type="type1" depart="9.15" departLane="random" departPos="base" departSpeed="max">
        <route edges="lane16 lane15_1 lane15_2 lane10_2 lane10_3 lane11 lane12"/>
    </vehicle>
    <vehicle id="m1.17" type="type1" depart="9.69" departLane="best" departPos="base" departSpeed="max">
        <route edges="lane0 lane1 lane2 lane3 lane4 lane5 lane6 lane7 lane8 lane9_1 lane9_2 lane10_1 lane10_2 lane10_3 lane11 lane12"/>
    </vehicle>
    <vehicle id="m1.18" type="type1" depart="10.26" departLane="best" departPos="base" departSpeed="max">
        <route edges="lane0 lane1 lane2 lane3 lane4 lane5 lane6 lane7 lane8 lane9_1 lane9_2 lane10_1 lane10_2 lane10_3 lane11 lane12"/>
    </vehicle>
    <vehicle id="m1.19" type="type1" depart="10.83" departLane="best" departPos="base" departSpeed="max">
        <route edges="lane0 lane1 lane2 lane3 lane4 lane5 lane6 lane7 lane8 lane9_1 lane9_2 lane10_1 lane10_2 lane10_3 lane11 lane12"/>
    </vehicle>
    <vehicle id="m1.20" type="type1" depart="11.40" departLane="best" departPos="base" departSpeed="max">
        <route edges="lane0 lane1 lane2 lane3 lane4 lane5 lane6 lane7 lane8 lane9_1 lane9_2 lane10_1 lane10_2 lane10_3 lane11 lane12"/>
    </vehicle>
    <vehicle id="m1.21" type="type1" depart="11.97" departLane="best" departPos="base" departSpeed="max">
        <route edges="lane0 lane1 lane2 lane3 lane4 lane5 lane6 lane7 lane8 lane9_1 lane9_2 lane10_1 lane10_2 lane10_3 lane11 lane12"/>
    </vehicle>
    <vehicle id="on1.4" type="type1" depart="12.20" departLane="random" departPos="base" departSpeed="max">
        <route edges="lane16 lane15_1 lane15_2 lane10_2 lane10_3 lane11 lane12"/>
    </vehicle>
    <vehicle id="m1.22" type="type1" depart="12.54" departLane="best" departPos="base" departSpeed="max">
        <route edges="lane0 lane1 lane2 lane3 lane4 lane5 lane6 lane7 lane8 lane9_1 lane9_2 lane10_1 lane10_2 lane10_3 lane11 lane12"/>
    </vehicle>
    <vehicle id="m1.23" type="type1" depart="13.11" departLane="best" departPos="base" departSpeed="max">
        <route edges="lane0 lane1 lane2 lane3 lane4 lane5 lane6 lane7 lane8 lane9_1 lane9_2 lane10_1 lane10_2 lane10_3 lane11 lane12"/>
    </vehicle>
    <vehicle id="m1.24" type="type1" depart="13.68" departLane="best" departPos="base" departSpeed="max">
        <route edges="lane0 lane1 lane2 lane3 lane4 lane5 lane6 lane7 lane8 lane9_1 lane9_2 lane10_1 lane10_2 lane10_3 lane11 lane12"/>
    </vehicle>
    <vehicle id="m1.25" type="type1" depart="14.25" departLane="best" departPos="base" departSpeed="max">
        <route edges="lane0 lane1 lane2 lane3 lane4 lane5 lane6 lane7 lane8 lane9_1 lane9_2 lane10_1 lane10_2 lane10_3 lane11 lane12"/>
    </vehicle>
    <vehicle id="m1.26" type="type1" depart="14.82" departLane="best" departPos="base" departSpeed="max">
        <route edges="lane0 lane1 lane2 lane3 lane4 lane5 lane6 lane7 lane8 lane9_1 lane9_2 lane10_1 lane10_2 lane10_3 lane11 lane12"/>
    </vehicle>
    <vehicle id="on1.5" type="type1" depart="15.26" departLane="random" departPos="base" departSpeed="max">
        <route edges="lane16 lane15_1 lane15_2 lane10_2 lane10_3 lane11 lane12"/>
    </vehicle>
    <vehicle id="m1.27" type="type1" depart="15.39" departLane="best" departPos="base" departSpeed="max">
        <route edges="lane0 lane1 lane2 lane3 lane4 lane5 lane6 lane7 lane8 lane9_1 lane9_2 lane10_1 lane10_2 lane10_3 lane11 lane12"/>
    </vehicle>
    <vehicle id="m1.28" type="type1" depart="15.96" departLane="best" departPos="base" departSpeed="max">
        <route edges="lane0 lane1 lane2 lane3 lane4 lane5 lane6 lane7 lane8 lane9_1 lane9_2 lane10_1 lane10_2 lane10_3 lane11 lane12"/>
    </vehicle>
    <vehicle id="m1.29" type="type1" depart="16.53" departLane="best" departPos="base" departSpeed="max">
        <route edges="lane0 lane1 lane2 lane3 lane4 lane5 lane6 lane7 lane8 lane9_1 lane9_2 lane10_1 lane10_2 lane10_3 lane11 lane12"/>
    </vehicle>
    <vehicle id="m1.30" type="type1" depart="17.10" departLane="best" departPos="base" departSpeed="max">
        <route edges="lane0 lane1 lane2 lane3 lane4 lane5 lane6 lane7 lane8 lane9_1 lane9_2 lane10_1 lane10_2 lane10_3 lane11 lane12"/>
    </vehicle>
    <vehicle id="m1.31" type="type1" depart="17.67" departLane="best" departPos="base" departSpeed="max">
        <route edges="lane0 lane1 lane2 lane3 lane4 lane5 lane6 lane7 lane8 lane9_1 lane9_2 lane10_1 lane10_2 lane10_3 lane11 lane12"/>
    </vehicle>
    <vehicle id="m1.32" type="type1" depart="18.24" departLane="best" departPos="base" departSpeed="max">
        <route edges="lane0 lane1 lane2 lane3 lane4 lane5 lane6 lane7 lane8 lane9_1 lane9_2 lane10_1 lane10_2 lane10_3 lane11 lane12"/>
    </vehicle>
    <vehicle id="on1.6" type="type1" depart="18.31" departLane="random" departPos="base" departSpeed="max">
        <route edges="lane16 lane15_1 lane15_2 lane10_2 lane10_3 lane11 lane12"/>
    </vehicle>
    <vehicle id="m1.33" type="type1" depart="18.81" departLane="best" departPos="base" departSpeed="max">
        <route edges="lane0 lane1 lane2 lane3 lane4 lane5 lane6 lane7 lane8 lane9_1 lane9_2 lane10_1 lane10_2 lane10_3 lane11 lane12"/>
    </vehicle>
    <vehicle id="m1.34" type="type1" depart="19.38" departLane="best" departPos="base" departSpeed="max">
        <route edges="lane0 lane1 lane2 lane3 lane4 lane5 lane6 lane7 lane8 lane9_1 lane9_2 lane10_1 lane10_2 lane10_3 lane11 lane12"/>
    </vehicle>
    <vehicle id="m1.35" type="type1" depart="19.95" departLane="best" departPos="base" departSpeed="max">
        <route edges="lane0 lane1 lane2 lane3 lane4 lane5 lane6 lane7 lane8 lane9_1 lane9_2 lane10_1 lane10_2 lane10_3 lane11 lane12"/>
    </vehicle>
    <vehicle id="off1.1" type="type1" depart="20.00" departLane="best" departPos="base" departSpeed="max">
        <route edges="lane0 lane1 lane2 lane3 lane4 lane5 lane6 lane7 lane8 lane9_1 lane13 lane14"/>
    </vehicle>
    <vehicle id="m1.36" type="type1" depart="20.52" departLane="best" departPos="base" departSpeed="max">
        <route edges="lane0 lane1 lane2 lane3 lane4 lane5 lane6 lane7 lane8 lane9_1 lane9_2 lane10_1 lane10_2 lane10_3 lane11 lane12"/>
    </vehicle>
    <vehicle id="m1.37" type="type1" depart="21.09" departLane="best" departPos="base" departSpeed="max">
        <route edges="lane0 lane1 lane2 lane3 lane4 lane5 lane6 lane7 lane8 lane9_1 lane9_2 lane10_1 lane10_2 lane10_3 lane11 lane12"/>
    </vehicle>
    <vehicle id="on1.7" type="type1" depart="21.36" departLane="random" departPos="base" departSpeed="max">
        <route edges="lane16 lane15_1 lane15_2 lane10_2 lane10_3 lane11 lane12"/>
    </vehicle>
    <vehicle id="m1.38" type="type1" depart="21.66" departLane="best" departPos="base" departSpeed="max">
        <route edges="lane0 lane1 lane2 lane3 lane4 lane5 lane6 lane7 lane8 lane9_1 lane9_2 lane10_1 lane10_2 lane10_3 lane11 lane12"/>
    </vehicle>
    <vehicle id="m1.39" type="type1" depart="22.23" departLane="best" departPos="base" departSpeed="max">
        <route edges="lane0 lane1 lane2 lane3 lane4 lane5 lane6 lane7 lane8 lane9_1 lane9_2 lane10_1 lane10_2 lane10_3 lane11 lane12"/>
    </vehicle>
    <vehicle id="m1.40" type="type1" depart="22.80" departLane="best" departPos="base" departSpeed="max">
        <route edges="lane0 lane1 lane2 lane3 lane4 lane5 lane6 lane7 lane8 lane9_1 lane9_2 lane10_1 lane10_2 lane10_3 lane11 lane12"/>
    </vehicle>
    <vehicle id="m1.41" type="type1" depart="23.37" departLane="best" departPos="base" departSpeed="max">
        <route edges="lane0 lane1 lane2 lane3 lane4 lane5 lane6 lane7 lane8 lane9_1 lane9_2 lane10_1 lane10_2 lane10_3 lane11 lane12"/>
    </vehicle>
    <vehicle id="m1.42" type="type1" depart="23.94" departLane="best" departPos="base" departSpeed="max">
        <route edges="lane0 lane1 lane2 lane3 lane4 lane5 lane6 lane7 lane8 lane9_1 lane9_2 lane10_1 lane10_2 lane10_3 lane11 lane12"/>
    </vehicle>
    <vehicle id="on1.8" type="type1" depart="24.41" departLane="random" departPos="base" departSpeed="max">
        <route edges="lane16 lane15_1 lane15_2 lane10_2 lane10_3 lane11 lane12"/>
    </vehicle>
    <vehicle id="m1.43" type="type1" depart="24.51" departLane="best" departPos="base" departSpeed="max">
        <route edges="lane0 lane1 lane2 lane3 lane4 lane5 lane6 lane7 lane8 lane9_1 lane9_2 lane10_1 lane10_2 lane10_3 lane11 lane12"/>
    </vehicle>
    <vehicle id="m1.44" type="type1" depart="25.08" departLane="best" departPos="base" departSpeed="max">
        <route edges="lane0 lane1 lane2 lane3 lane4 lane5 lane6 lane7 lane8 lane9_1 lane9_2 lane10_1 lane10_2 lane10_3 lane11 lane12"/>
    </vehicle>
    <vehicle id="m1.45" type="type1" depart="25.65" departLane="best" departPos="base" departSpeed="max">
        <route edges="lane0 lane1 lane2 lane3 lane4 lane5 lane6 lane7 lane8 lane9_1 lane9_2 lane10_1 lane10_2 lane10_3 lane11 lane12"/>
    </vehicle>
    <vehicle id="m1.46" type="type1" depart="26.22" departLane="best" departPos="base" departSpeed="max">
        <route edges="lane0 lane1 lane2 lane3 lane4 lane5 lane6 lane7 lane8 lane9_1 lane9_2 lane10_1 lane10_2 lane10_3 lane11 lane12"/>
    </vehicle>
    <vehicle id="m1.47" type="type1" depart="26.79" departLane="best" departPos="base" departSpeed="max">
        <route edges="lane0 lane1 lane2 lane3 lane4 lane5 lane6 lane7 lane8 lane9_1 lane9_2 lane10_1 lane10_2 lane10_3 lane11 lane12"/>
    </vehicle>
    <vehicle id="m1.48" type="type1" depart="27.36" departLane="best" departPos="base" departSpeed="max">
        <route edges="lane0 lane1 lane2 lane3 lane4 lane5 lane6 lane7 lane8 lane9_1 lane9_2 lane10_1 lane10_2 lane10_3 lane11 lane12"/>
    </vehicle>
    <vehicle id="on1.9" type="type1" depart="27.46" departLane="random" departPos="base" departSpeed="max">
        <route edges="lane16 lane15_1 lane15_2 lane10_2 lane10_3 lane11 lane12"/>
    </vehicle>
    <vehicle id="m1.49" type="type1" depart="27.93" departLane="best" departPos="base" departSpeed="max">
        <route edges="lane0 lane1 lane2 lane3 lane4 lane5 lane6 lane7 lane8 lane9_1 lane9_2 lane10_1 lane10_2 lane10_3 lane11 lane12"/>
    </vehicle>
    <vehicle id="m1.50" type="type1" depart="28.50" departLane="best" departPos="base" departSpeed="max">
        <route edges="lane0 lane1 lane2 lane3 lane4 lane5 lane6 lane7 lane8 lane9_1 lane9_2 lane10_1 lane10_2 lane10_3 lane11 lane12"/>
    </vehicle>
    <vehicle id="m1.51" type="type1" depart="29.07" departLane="best" departPos="base" departSpeed="max">
        <route edges="lane0 lane1 lane2 lane3 lane4 lane5 lane6 lane7 lane8 lane9_1 lane9_2 lane10_1 lane10_2 lane10_3 lane11 lane12"/>
    </vehicle>
    <vehicle id="m1.52" type="type1" depart="29.64" departLane="best" departPos="base" departSpeed="max">
        <route edges="lane0 lane1 lane2 lane3 lane4 lane5 lane6 lane7 lane8 lane9_1 lane9_2 lane10_1 lane10_2 lane10_3 lane11 lane12"/>
    </vehicle>
    <vehicle id="m1.53" type="type1" depart="30.21" departLane="best" departPos="base" departSpeed="max">
        <route edges="lane0 lane1 lane2 lane3 lane4 lane5 lane6 lane7 lane8 lane9_1 lane9_2 lane10_1 lane10_2 lane10_3 lane11 lane12"/>
    </vehicle>
    <vehicle id="on1.10" type="type1" depart="30.51" departLane="random" departPos="base" departSpeed="max">
        <route edges="lane16 lane15_1 lane15_2 lane10_2 lane10_3 lane11 lane12"/>
    </vehicle>
    <vehicle id="m1.54" type="type1" depart="30.78" departLane="best" departPos="base" departSpeed="max">
        <route edges="lane0 lane1 lane2 lane3 lane4 lane5 lane6 lane7 lane8 lane9_1 lane9_2 lane10_1 lane10_2 lane10_3 lane11 lane12"/>
    </vehicle>
    <vehicle id="m1.55" type="type1" depart="31.35" departLane="best" departPos="base" departSpeed="max">
        <route edges="lane0 lane1 lane2 lane3 lane4 lane5 lane6 lane7 lane8 lane9_1 lane9_2 lane10_1 lane10_2 lane10_3 lane11 lane12"/>
    </vehicle>
    <vehicle id="m1.56" type="type1" depart="31.92" departLane="best" departPos="base" departSpeed="max">
        <route edges="lane0 lane1 lane2 lane3 lane4 lane5 lane6 lane7 lane8 lane9_1 lane9_2 lane10_1 lane10_2 lane10_3 lane11 lane12"/>
    </vehicle>
    <vehicle id="m1.57" type="type1" depart="32.49" departLane="best" departPos="base" departSpeed="max">
        <route edges="lane0 lane1 lane2 lane3 lane4 lane5 lane6 lane7 lane8 lane9_1 lane9_2 lane10_1 lane10_2 lane10_3 lane11 lane12"/>
    </vehicle>
    <vehicle id="m1.58" type="type1" depart="33.06" departLane="best" departPos="base" departSpeed="max">
        <route edges="lane0 lane1 lane2 lane3 lane4 lane5 lane6 lane7 lane8 lane9_1 lane9_2 lane10_1 lane10_2 lane10_3 lane11 lane12"/>
    </vehicle>
    <vehicle id="on1.11" type="type1" depart="33.56" departLane="random" departPos="base" departSpeed="max">
        <route edges="lane16 lane15_1 lane15_2 lane10_2 lane10_3 lane11 lane12"/>
    </vehicle>
    <vehicle id="m1.59" type="type1" depart="33.63" departLane="best" departPos="base" departSpeed="max">
        <route edges="lane0 lane1 lane2 lane3 lane4 lane5 lane6 lane7 lane8 lane9_1 lane9_2 lane10_1 lane10_2 lane10_3 lane11 lane12"/>
    </vehicle>
    <vehicle id="m1.60" type="type1" depart="34.20" departLane="best" departPos="base" departSpeed="max">
        <route edges="lane0 lane1 lane2 lane3 lane4 lane5 lane6 lane7 lane8 lane9_1 lane9_2 lane10_1 lane10_2 lane10_3 lane11 lane12"/>
    </vehicle>
    <vehicle id="m1.61" type="type1" depart="34.77" departLane="best" departPos="base" departSpeed="max">
        <route edges="lane0 lane1 lane2 lane3 lane4 lane5 lane6 lane7 lane8 lane9_1 lane9_2 lane10_1 lane10_2 lane10_3 lane11 lane12"/>
    </vehicle>
    <vehicle id="m1.62" type="type1" depart="35.34" departLane="best" departPos="base" departSpeed="max">
        <route edges="lane0 lane1 lane2 lane3 lane4 lane5 lane6 lane7 lane8 lane9_1 lane9_2 lane10_1 lane10_2 lane10_3 lane11 lane12"/>
    </vehicle>
    <vehicle id="m1.63" type="type1" depart="35.91" departLane="best" departPos="base" departSpeed="max">
        <route edges="lane0 lane1 lane2 lane3 lane4 lane5 lane6 lane7 lane8 lane9_1 lane9_2 lane10_1 lane10_2 lane10_3 lane11 lane12"/>
    </vehicle>
    <vehicle id="m1.64" type="type1" depart="36.48" departLane="best" departPos="base" departSpeed="max">
        <route edges="lane0 lane1 lane2 lane3 lane4 lane5 lane6 lane7 lane8 lane9_1 lane9_2 lane10_1 lane10_2 lane10_3 lane11 lane12"/>
    </vehicle>
    <vehicle id="on1.12" type="type1" depart="36.61" departLane="random" departPos="base" departSpeed="max">
        <route edges="lane16 lane15_1 lane15_2 lane10_2 lane10_3 lane11 lane12"/>
    </vehicle>
    <vehicle id="m1.65" type="type1" depart="37.05" departLane="best" departPos="base" departSpeed="max">
        <route edges="lane0 lane1 lane2 lane3 lane4 lane5 lane6 lane7 lane8 lane9_1 lane9_2 lane10_1 lane10_2 lane10_3 lane11 lane12"/>
    </vehicle>
    <vehicle id="m1.66" type="type1" depart="37.62" departLane="best" departPos="base" departSpeed="max">
        <route edges="lane0 lane1 lane2 lane3 lane4 lane5 lane6 lane7 lane8 lane9_1 lane9_2 lane10_1 lane10_2 lane10_3 lane11 lane12"/>
    </vehicle>
    <vehicle id="m1.67" type="type1" depart="38.19" departLane="best" departPos="base" departSpeed="max">
        <route edges="lane0 lane1 lane2 lane3 lane4 lane5 lane6 lane7 lane8 lane9_1 lane9_2 lane10_1 lane10_2 lane10_3 lane11 lane12"/>
    </vehicle>
    <vehicle id="m1.68" type="type1" depart="38.76" departLane="best" departPos="base" departSpeed="max">
        <route edges="lane0 lane1 lane2 lane3 lane4 lane5 lane6 lane7 lane8 lane9_1 lane9_2 lane10_1 lane10_2 lane10_3 lane11 lane12"/>
    </vehicle>
    <vehicle id="m1.69" type="type1" depart="39.33" departLane="best" departPos="base" departSpeed="max">
        <route edges="lane0 lane1 lane2 lane3 lane4 lane5 lane6 lane7 lane8 lane9_1 lane9_2 lane10_1 lane10_2 lane10_3 lane11 lane12"/>
    </vehicle>
    <vehicle id="on1.13" type="type1" depart="39.66" departLane="random" departPos="base" departSpeed="max">
        <route edges="lane16 lane15_1 lane15_2 lane10_2 lane10_3 lane11 lane12"/>
    </vehicle>
    <vehicle id="m1.70" type="type1" depart="39.90" departLane="best" departPos="base" departSpeed="max">
        <route edges="lane0 lane1 lane2 lane3 lane4 lane5 lane6 lane7 lane8 lane9_1 lane9_2 lane10_1 lane10_2 lane10_3 lane11 lane12"/>
    </vehicle>
    <vehicle id="off1.2" type="type1" depart="40.00" departLane="best" departPos="base" departSpeed="max">
        <route edges="lane0 lane1 lane2 lane3 lane4 lane5 lane6 lane7 lane8 lane9_1 lane13 lane14"/>
    </vehicle>
    <vehicle id="m1.71" type="type1" depart="40.47" departLane="best" departPos="base" departSpeed="max">
        <route edges="lane0 lane1 lane2 lane3 lane4 lane5 lane6 lane7 lane8 lane9_1 lane9_2 lane10_1 lane10_2 lane10_3 lane11 lane12"/>
    </vehicle>
    <vehicle id="m1.72" type="type1" depart="41.04" departLane="best" departPos="base" departSpeed="max">
        <route edges="lane0 lane1 lane2 lane3 lane4 lane5 lane6 lane7 lane8 lane9_1 lane9_2 lane10_1 lane10_2 lane10_3 lane11 lane12"/>
    </vehicle>
    <vehicle id="m1.73" type="type1" depart="41.61" departLane="best" departPos="base" departSpeed="max">
        <route edges="lane0 lane1 lane2 lane3 lane4 lane5 lane6 lane7 lane8 lane9_1 lane9_2 lane10_1 lane10_2 lane10_3 lane11 lane12"/>
    </vehicle>
    <vehicle id="m1.74" type="type1" depart="42.18" departLane="best" departPos="base" departSpeed="max">
        <route edges="lane0 lane1 lane2 lane3 lane4 lane5 lane6 lane7 lane8 lane9_1 lane9_2 lane10_1 lane10_2 lane10_3 lane11 lane12"/>
    </vehicle>
    <vehicle id="on1.14" type="type1" depart="42.71" departLane="random" departPos="base" departSpeed="max">
        <route edges="lane16 lane15_1 lane15_2 lane10_2 lane10_3 lane11 lane12"/>
    </vehicle>
    <vehicle id="m1.75" type="type1" depart="42.75" departLane="best" departPos="base" departSpeed="max">
        <route edges="lane0 lane1 lane2 lane3 lane4 lane5 lane6 lane7 lane8 lane9_1 lane9_2 lane10_1 lane10_2 lane10_3 lane11 lane12"/>
    </vehicle>
    <vehicle id="m1.76" type="type1" depart="43.32" departLane="best" departPos="base" departSpeed="max">
        <route edges="lane0 lane1 lane2 lane3 lane4 lane5 lane6 lane7 lane8 lane9_1 lane9_2 lane10_1 lane10_2 lane10_3 lane11 lane12"/>
    </vehicle>
    <vehicle id="m1.77" type="type1" depart="43.89" departLane="best" departPos="base" departSpeed="max">
        <route edges="lane0 lane1 lane2 lane3 lane4 lane5 lane6 lane7 lane8 lane9_1 lane9_2 lane10_1 lane10_2 lane10_3 lane11 lane12"/>
    </vehicle>
    <vehicle id="m1.78" type="type1" depart="44.46" departLane="best" departPos="base" departSpeed="max">
        <route edges="lane0 lane1 lane2 lane3 lane4 lane5 lane6 lane7 lane8 lane9_1 lane9_2 lane10_1 lane10_2 lane10_3 lane11 lane12"/>
    </vehicle>
    <vehicle id="m1.79" type="type1" depart="45.03" departLane="best" departPos="base" departSpeed="max">
        <route edges="lane0 lane1 lane2 lane3 lane4 lane5 lane6 lane7 lane8 lane9_1 lane9_2 lane10_1 lane10_2 lane10_3 lane11 lane12"/>
    </vehicle>
    <vehicle id="m1.80" type="type1" depart="45.60" departLane="best" departPos="base" departSpeed="max">
        <route edges="lane0 lane1 lane2 lane3 lane4 lane5 lane6 lane7 lane8 lane9_1 lane9_2 lane10_1 lane10_2 lane10_3 lane11 lane12"/>
    </vehicle>
    <vehicle id="on1.15" type="type1" depart="45.77" departLane="random" departPos="base" departSpeed="max">
        <route edges="lane16 lane15_1 lane15_2 lane10_2 lane10_3 lane11 lane12"/>
    </vehicle>
    <vehicle id="m1.81" type="type1" depart="46.17" departLane="best" departPos="base" departSpeed="max">
        <route edges="lane0 lane1 lane2 lane3 lane4 lane5 lane6 lane7 lane8 lane9_1 lane9_2 lane10_1 lane10_2 lane10_3 lane11 lane12"/>
    </vehicle>
    <vehicle id="m1.82" type="type1" depart="46.74" departLane="best" departPos="base" departSpeed="max">
        <route edges="lane0 lane1 lane2 lane3 lane4 lane5 lane6 lane7 lane8 lane9_1 lane9_2 lane10_1 lane10_2 lane10_3 lane11 lane12"/>
    </vehicle>
    <vehicle id="m1.83" type="type1" depart="47.31" departLane="best" departPos="base" departSpeed="max">
        <route edges="lane0 lane1 lane2 lane3 lane4 lane5 lane6 lane7 lane8 lane9_1 lane9_2 lane10_1 lane10_2 lane10_3 lane11 lane12"/>
    </vehicle>
    <vehicle id="m1.84" type="type1" depart="47.88" departLane="best" departPos="base" departSpeed="max">
        <route edges="lane0 lane1 lane2 lane3 lane4 lane5 lane6 lane7 lane8 lane9_1 lane9_2 lane10_1 lane10_2 lane10_3 lane11 lane12"/>
    </vehicle>
    <vehicle id="m1.85" type="type1" depart="48.45" departLane="best" departPos="base" departSpeed="max">
        <route edges="lane0 lane1 lane2 lane3 lane4 lane5 lane6 lane7 lane8 lane9_1 lane9_2 lane10_1 lane10_2 lane10_3 lane11 lane12"/>
    </vehicle>
    <vehicle id="on1.16" type="type1" depart="48.82" departLane="random" departPos="base" departSpeed="max">
        <route edges="lane16 lane15_1 lane15_2 lane10_2 lane10_3 lane11 lane12"/>
    </vehicle>
    <vehicle id="m1.86" type="type1" depart="49.02" departLane="best" departPos="base" departSpeed="max">
        <route edges="lane0 lane1 lane2 lane3 lane4 lane5 lane6 lane7 lane8 lane9_1 lane9_2 lane10_1 lane10_2 lane10_3 lane11 lane12"/>
    </vehicle>
    <vehicle id="m1.87" type="type1" depart="49.59" departLane="best" departPos="base" departSpeed="max">
        <route edges="lane0 lane1 lane2 lane3 lane4 lane5 lane6 lane7 lane8 lane9_1 lane9_2 lane10_1 lane10_2 lane10_3 lane11 lane12"/>
    </vehicle>
    <vehicle id="m1.88" type="type1" depart="50.16" departLane="best" departPos="base" departSpeed="max">
        <route edges="lane0 lane1 lane2 lane3 lane4 lane5 lane6 lane7 lane8 lane9_1 lane9_2 lane10_1 lane10_2 lane10_3 lane11 lane12"/>
    </vehicle>
    <vehicle id="m1.89" type="type1" depart="50.73" departLane="best" departPos="base" departSpeed="max">
        <route edges="lane0 lane1 lane2 lane3 lane4 lane5 lane6 lane7 lane8 lane9_1 lane9_2 lane10_1 lane10_2 lane10_3 lane11 lane12"/>
    </vehicle>
    <vehicle id="m1.90" type="type1" depart="51.30" departLane="best" departPos="base" departSpeed="max">
        <route edges="lane0 lane1 lane2 lane3 lane4 lane5 lane6 lane7 lane8 lane9_1 lane9_2 lane10_1 lane10_2 lane10_3 lane11 lane12"/>
    </vehicle>
    <vehicle id="on1.17" type="type1" depart="51.87" departLane="random" departPos="base" departSpeed="max">
        <route edges="lane16 lane15_1 lane15_2 lane10_2 lane10_3 lane11 lane12"/>
    </vehicle>
    <vehicle id="m1.91" type="type1" depart="51.87" departLane="best" departPos="base" departSpeed="max">
        <route edges="lane0 lane1 lane2 lane3 lane4 lane5 lane6 lane7 lane8 lane9_1 lane9_2 lane10_1 lane10_2 lane10_3 lane11 lane12"/>
    </vehicle>
    <vehicle id="m1.92" type="type1" depart="52.44" departLane="best" departPos="base" departSpeed="max">
        <route edges="lane0 lane1 lane2 lane3 lane4 lane5 lane6 lane7 lane8 lane9_1 lane9_2 lane10_1 lane10_2 lane10_3 lane11 lane12"/>
    </vehicle>
    <vehicle id="m1.93" type="type1" depart="53.01" departLane="best" departPos="base" departSpeed="max">
        <route edges="lane0 lane1 lane2 lane3 lane4 lane5 lane6 lane7 lane8 lane9_1 lane9_2 lane10_1 lane10_2 lane10_3 lane11 lane12"/>
    </vehicle>
    <vehicle id="m1.94" type="type1" depart="53.58" departLane="best" departPos="base" departSpeed="max">
        <route edges="lane0 lane1 lane2 lane3 lane4 lane5 lane6 lane7 lane8 lane9_1 lane9_2 lane10_1 lane10_2 lane10_3 lane11 lane12"/>
    </vehicle>
    <vehicle id="m1.95" type="type1" depart="54.15" departLane="best" departPos="base" departSpeed="max">